
---------- Begin Simulation Statistics ----------
sim_seconds                                  0.130695                       # Number of seconds simulated
sim_ticks                                130695311500                       # Number of ticks simulated
final_tick                               5306863390000                       # Number of ticks from beginning of simulation (restored from checkpoints and never reset)
sim_freq                                 1000000000000                       # Frequency of simulated ticks
host_inst_rate                                  34147                       # Simulator instruction rate (inst/s)
host_op_rate                                    58951                       # Simulator op (including micro ops) rate (op/s)
host_tick_rate                              104473352                       # Simulator tick rate (ticks/s)
host_mem_usage                                3754464                       # Number of bytes of host memory used
host_seconds                                  1250.99                       # Real time elapsed on the host
sim_insts                                    42717307                       # Number of instructions simulated
sim_ops                                      73747553                       # Number of ops (including micro ops) simulated
system.voltage_domain.voltage                       1                       # Voltage in Volts
system.clk_domain.clock                           500                       # Clock period in ticks
system.mem_ctrls0.bytes_read::ruby.dir_cntrl0     21455552                       # Number of bytes read from this memory
system.mem_ctrls0.bytes_read::total          21455552                       # Number of bytes read from this memory
system.mem_ctrls0.bytes_written::ruby.dir_cntrl0     13542528                       # Number of bytes written to this memory
system.mem_ctrls0.bytes_written::total       13542528                       # Number of bytes written to this memory
system.mem_ctrls0.num_reads::ruby.dir_cntrl0       335243                       # Number of read requests responded to by this memory
system.mem_ctrls0.num_reads::total             335243                       # Number of read requests responded to by this memory
system.mem_ctrls0.num_writes::ruby.dir_cntrl0       211602                       # Number of write requests responded to by this memory
system.mem_ctrls0.num_writes::total            211602                       # Number of write requests responded to by this memory
system.mem_ctrls0.bw_read::ruby.dir_cntrl0    164164665                       # Total read bandwidth from this memory (bytes/s)
system.mem_ctrls0.bw_read::total            164164665                       # Total read bandwidth from this memory (bytes/s)
system.mem_ctrls0.bw_write::ruby.dir_cntrl0    103619080                       # Write bandwidth from this memory (bytes/s)
system.mem_ctrls0.bw_write::total           103619080                       # Write bandwidth from this memory (bytes/s)
system.mem_ctrls0.bw_total::ruby.dir_cntrl0    267783745                       # Total bandwidth to/from this memory (bytes/s)
system.mem_ctrls0.bw_total::total           267783745                       # Total bandwidth to/from this memory (bytes/s)
system.mem_ctrls0.readReqs                     335243                       # Number of read requests accepted
system.mem_ctrls0.writeReqs                    211602                       # Number of write requests accepted
system.mem_ctrls0.readBursts                   335243                       # Number of DRAM read bursts, including those serviced by the write queue
system.mem_ctrls0.writeBursts                  211602                       # Number of DRAM write bursts, including those merged in the write queue
system.mem_ctrls0.bytesReadDRAM              21454400                       # Total number of bytes read from DRAM
system.mem_ctrls0.bytesReadWrQ                   1152                       # Total number of bytes read from write queue
system.mem_ctrls0.bytesWritten               13542528                       # Total number of bytes written to DRAM
system.mem_ctrls0.bytesReadSys               21455552                       # Total read bytes from the system interface side
system.mem_ctrls0.bytesWrittenSys            13542528                       # Total written bytes from the system interface side
system.mem_ctrls0.servicedByWrQ                    18                       # Number of DRAM read bursts serviced by the write queue
system.mem_ctrls0.mergedWrBursts                    0                       # Number of DRAM write bursts merged with an existing one
system.mem_ctrls0.neitherReadNorWriteReqs            0                       # Number of requests that are neither read nor write
system.mem_ctrls0.perBankRdBursts::0            20686                       # Per bank write bursts
system.mem_ctrls0.perBankRdBursts::1            21305                       # Per bank write bursts
system.mem_ctrls0.perBankRdBursts::2            20882                       # Per bank write bursts
system.mem_ctrls0.perBankRdBursts::3            21354                       # Per bank write bursts
system.mem_ctrls0.perBankRdBursts::4            20965                       # Per bank write bursts
system.mem_ctrls0.perBankRdBursts::5            21170                       # Per bank write bursts
system.mem_ctrls0.perBankRdBursts::6            21087                       # Per bank write bursts
system.mem_ctrls0.perBankRdBursts::7            21073                       # Per bank write bursts
system.mem_ctrls0.perBankRdBursts::8            20847                       # Per bank write bursts
system.mem_ctrls0.perBankRdBursts::9            21048                       # Per bank write bursts
system.mem_ctrls0.perBankRdBursts::10           20809                       # Per bank write bursts
system.mem_ctrls0.perBankRdBursts::11           21198                       # Per bank write bursts
system.mem_ctrls0.perBankRdBursts::12           20663                       # Per bank write bursts
system.mem_ctrls0.perBankRdBursts::13           20567                       # Per bank write bursts
system.mem_ctrls0.perBankRdBursts::14           20789                       # Per bank write bursts
system.mem_ctrls0.perBankRdBursts::15           20782                       # Per bank write bursts
system.mem_ctrls0.perBankWrBursts::0            13294                       # Per bank write bursts
system.mem_ctrls0.perBankWrBursts::1            13234                       # Per bank write bursts
system.mem_ctrls0.perBankWrBursts::2            13147                       # Per bank write bursts
system.mem_ctrls0.perBankWrBursts::3            13393                       # Per bank write bursts
system.mem_ctrls0.perBankWrBursts::4            13211                       # Per bank write bursts
system.mem_ctrls0.perBankWrBursts::5            13313                       # Per bank write bursts
system.mem_ctrls0.perBankWrBursts::6            13245                       # Per bank write bursts
system.mem_ctrls0.perBankWrBursts::7            13418                       # Per bank write bursts
system.mem_ctrls0.perBankWrBursts::8            13130                       # Per bank write bursts
system.mem_ctrls0.perBankWrBursts::9            13343                       # Per bank write bursts
system.mem_ctrls0.perBankWrBursts::10           13130                       # Per bank write bursts
system.mem_ctrls0.perBankWrBursts::11           13074                       # Per bank write bursts
system.mem_ctrls0.perBankWrBursts::12           13064                       # Per bank write bursts
system.mem_ctrls0.perBankWrBursts::13           13072                       # Per bank write bursts
system.mem_ctrls0.perBankWrBursts::14           13360                       # Per bank write bursts
system.mem_ctrls0.perBankWrBursts::15           13174                       # Per bank write bursts
system.mem_ctrls0.numRdRetry                    99488                       # Number of times read queue was full causing retry
system.mem_ctrls0.numWrRetry                     3011                       # Number of times write queue was full causing retry
system.mem_ctrls0.totGap                 130694769000                       # Total gap between requests
system.mem_ctrls0.readPktSize::0                    0                       # Read request sizes (log2)
system.mem_ctrls0.readPktSize::1                    0                       # Read request sizes (log2)
system.mem_ctrls0.readPktSize::2                    0                       # Read request sizes (log2)
system.mem_ctrls0.readPktSize::3                    0                       # Read request sizes (log2)
system.mem_ctrls0.readPktSize::4                    0                       # Read request sizes (log2)
system.mem_ctrls0.readPktSize::5                    0                       # Read request sizes (log2)
system.mem_ctrls0.readPktSize::6               335243                       # Read request sizes (log2)
system.mem_ctrls0.writePktSize::0                   0                       # Write request sizes (log2)
system.mem_ctrls0.writePktSize::1                   0                       # Write request sizes (log2)
system.mem_ctrls0.writePktSize::2                   0                       # Write request sizes (log2)
system.mem_ctrls0.writePktSize::3                   0                       # Write request sizes (log2)
system.mem_ctrls0.writePktSize::4                   0                       # Write request sizes (log2)
system.mem_ctrls0.writePktSize::5                   0                       # Write request sizes (log2)
system.mem_ctrls0.writePktSize::6              211602                       # Write request sizes (log2)
system.mem_ctrls0.rdQLenPdf::0                 175727                       # What read queue length does an incoming req see
system.mem_ctrls0.rdQLenPdf::1                   5154                       # What read queue length does an incoming req see
system.mem_ctrls0.rdQLenPdf::2                   2370                       # What read queue length does an incoming req see
system.mem_ctrls0.rdQLenPdf::3                    981                       # What read queue length does an incoming req see
system.mem_ctrls0.rdQLenPdf::4                   1120                       # What read queue length does an incoming req see
system.mem_ctrls0.rdQLenPdf::5                   1249                       # What read queue length does an incoming req see
system.mem_ctrls0.rdQLenPdf::6                   1420                       # What read queue length does an incoming req see
system.mem_ctrls0.rdQLenPdf::7                   1494                       # What read queue length does an incoming req see
system.mem_ctrls0.rdQLenPdf::8                   1500                       # What read queue length does an incoming req see
system.mem_ctrls0.rdQLenPdf::9                   1558                       # What read queue length does an incoming req see
system.mem_ctrls0.rdQLenPdf::10                  1661                       # What read queue length does an incoming req see
system.mem_ctrls0.rdQLenPdf::11                  1754                       # What read queue length does an incoming req see
system.mem_ctrls0.rdQLenPdf::12                  1879                       # What read queue length does an incoming req see
system.mem_ctrls0.rdQLenPdf::13                  1830                       # What read queue length does an incoming req see
system.mem_ctrls0.rdQLenPdf::14                  1873                       # What read queue length does an incoming req see
system.mem_ctrls0.rdQLenPdf::15                  1972                       # What read queue length does an incoming req see
system.mem_ctrls0.rdQLenPdf::16                  1944                       # What read queue length does an incoming req see
system.mem_ctrls0.rdQLenPdf::17                  1996                       # What read queue length does an incoming req see
system.mem_ctrls0.rdQLenPdf::18                  1850                       # What read queue length does an incoming req see
system.mem_ctrls0.rdQLenPdf::19                  1900                       # What read queue length does an incoming req see
system.mem_ctrls0.rdQLenPdf::20                  1963                       # What read queue length does an incoming req see
system.mem_ctrls0.rdQLenPdf::21                  2008                       # What read queue length does an incoming req see
system.mem_ctrls0.rdQLenPdf::22                  1910                       # What read queue length does an incoming req see
system.mem_ctrls0.rdQLenPdf::23                  1925                       # What read queue length does an incoming req see
system.mem_ctrls0.rdQLenPdf::24                  1861                       # What read queue length does an incoming req see
system.mem_ctrls0.rdQLenPdf::25                  1916                       # What read queue length does an incoming req see
system.mem_ctrls0.rdQLenPdf::26                  1859                       # What read queue length does an incoming req see
system.mem_ctrls0.rdQLenPdf::27                  1919                       # What read queue length does an incoming req see
system.mem_ctrls0.rdQLenPdf::28                  2038                       # What read queue length does an incoming req see
system.mem_ctrls0.rdQLenPdf::29                  2117                       # What read queue length does an incoming req see
system.mem_ctrls0.rdQLenPdf::30                  2260                       # What read queue length does an incoming req see
system.mem_ctrls0.rdQLenPdf::31                102217                       # What read queue length does an incoming req see
system.mem_ctrls0.wrQLenPdf::0                  37574                       # What write queue length does an incoming req see
system.mem_ctrls0.wrQLenPdf::1                  38565                       # What write queue length does an incoming req see
system.mem_ctrls0.wrQLenPdf::2                  39092                       # What write queue length does an incoming req see
system.mem_ctrls0.wrQLenPdf::3                  39311                       # What write queue length does an incoming req see
system.mem_ctrls0.wrQLenPdf::4                  39168                       # What write queue length does an incoming req see
system.mem_ctrls0.wrQLenPdf::5                   5436                       # What write queue length does an incoming req see
system.mem_ctrls0.wrQLenPdf::6                   5981                       # What write queue length does an incoming req see
system.mem_ctrls0.wrQLenPdf::7                   6475                       # What write queue length does an incoming req see
system.mem_ctrls0.bytesPerActivate::samples       153661                       # Bytes accessed per row activation
system.mem_ctrls0.bytesPerActivate::mean   227.745804                       # Bytes accessed per row activation
system.mem_ctrls0.bytesPerActivate::gmean   167.446907                       # Bytes accessed per row activation
system.mem_ctrls0.bytesPerActivate::stdev   187.596543                       # Bytes accessed per row activation
system.mem_ctrls0.bytesPerActivate::0-127        52236     33.99%     33.99% # Bytes accessed per row activation
system.mem_ctrls0.bytesPerActivate::128-255        30743     20.01%     54.00% # Bytes accessed per row activation
system.mem_ctrls0.bytesPerActivate::256-383        53477     34.80%     88.80% # Bytes accessed per row activation
system.mem_ctrls0.bytesPerActivate::384-511         6146      4.00%     92.80% # Bytes accessed per row activation
system.mem_ctrls0.bytesPerActivate::512-639         4082      2.66%     95.46% # Bytes accessed per row activation
system.mem_ctrls0.bytesPerActivate::640-767         2330      1.52%     96.98% # Bytes accessed per row activation
system.mem_ctrls0.bytesPerActivate::768-895         1292      0.84%     97.82% # Bytes accessed per row activation
system.mem_ctrls0.bytesPerActivate::896-1023          988      0.64%     98.46% # Bytes accessed per row activation
system.mem_ctrls0.bytesPerActivate::1024-1151         2367      1.54%    100.00% # Bytes accessed per row activation
system.mem_ctrls0.bytesPerActivate::total       153661                       # Bytes accessed per row activation
system.mem_ctrls0.rdPerTurnAround::samples        37842                       # Reads before turning the bus around for writes
system.mem_ctrls0.rdPerTurnAround::mean      8.858543                       # Reads before turning the bus around for writes
system.mem_ctrls0.rdPerTurnAround::stdev    24.011564                       # Reads before turning the bus around for writes
system.mem_ctrls0.rdPerTurnAround::0-127        37816     99.93%     99.93% # Reads before turning the bus around for writes
system.mem_ctrls0.rdPerTurnAround::128-255           25      0.07%    100.00% # Reads before turning the bus around for writes
system.mem_ctrls0.rdPerTurnAround::3968-4095            1      0.00%    100.00% # Reads before turning the bus around for writes
system.mem_ctrls0.rdPerTurnAround::total        37842                       # Reads before turning the bus around for writes
system.mem_ctrls0.wrPerTurnAround::samples        37842                       # Writes before turning the bus around for reads
system.mem_ctrls0.wrPerTurnAround::mean      5.591723                       # Writes before turning the bus around for reads
system.mem_ctrls0.wrPerTurnAround::gmean     5.405825                       # Writes before turning the bus around for reads
system.mem_ctrls0.wrPerTurnAround::stdev     1.880217                       # Writes before turning the bus around for reads
system.mem_ctrls0.wrPerTurnAround::4-7          34427     90.98%     90.98% # Writes before turning the bus around for reads
system.mem_ctrls0.wrPerTurnAround::8-11          2314      6.11%     97.09% # Writes before turning the bus around for reads
system.mem_ctrls0.wrPerTurnAround::12-15          646      1.71%     98.80% # Writes before turning the bus around for reads
system.mem_ctrls0.wrPerTurnAround::16-19          455      1.20%    100.00% # Writes before turning the bus around for reads
system.mem_ctrls0.wrPerTurnAround::total        37842                       # Writes before turning the bus around for reads
system.mem_ctrls0.totQLat                 33740639451                       # Total ticks spent queuing
system.mem_ctrls0.totMemAccLat            40026108201                       # Total ticks spent from burst creation until serviced by the DRAM
system.mem_ctrls0.totBusLat                1676125000                       # Total ticks spent in databus transfers
system.mem_ctrls0.avgQLat                   100650.73                       # Average queueing delay per DRAM burst
system.mem_ctrls0.avgBusLat                   5000.00                       # Average bus latency per DRAM burst
system.mem_ctrls0.avgMemAccLat              119400.73                       # Average memory access latency per DRAM burst
system.mem_ctrls0.avgRdBW                      164.16                       # Average DRAM read bandwidth in MiByte/s
system.mem_ctrls0.avgWrBW                      103.62                       # Average achieved write bandwidth in MiByte/s
system.mem_ctrls0.avgRdBWSys                   164.16                       # Average system read bandwidth in MiByte/s
system.mem_ctrls0.avgWrBWSys                   103.62                       # Average system write bandwidth in MiByte/s
system.mem_ctrls0.peakBW                     12800.00                       # Theoretical peak bandwidth in MiByte/s
system.mem_ctrls0.busUtil                        2.09                       # Data bus utilization in percentage
system.mem_ctrls0.busUtilRead                    1.28                       # Data bus utilization in percentage for reads
system.mem_ctrls0.busUtilWrite                   0.81                       # Data bus utilization in percentage for writes
system.mem_ctrls0.avgRdQLen                      1.27                       # Average read queue length when enqueuing
system.mem_ctrls0.avgWrQLen                      2.96                       # Average write queue length when enqueuing
system.mem_ctrls0.readRowHits                  254380                       # Number of row buffer hits during reads
system.mem_ctrls0.writeRowHits                 138774                       # Number of row buffer hits during writes
system.mem_ctrls0.readRowHitRate                75.88                       # Row buffer hit rate for reads
system.mem_ctrls0.writeRowHitRate               65.58                       # Row buffer hit rate for writes
system.mem_ctrls0.avgGap                    238997.83                       # Average gap between requests
system.mem_ctrls0.pageHitRate                   71.90                       # Row buffer hit rate, read and write combined
system.mem_ctrls0.memoryStateTime::IDLE   28041392250                       # Time in different power states
system.mem_ctrls0.memoryStateTime::REF     4364100000                       # Time in different power states
system.mem_ctrls0.memoryStateTime::PRE_PDN            0                       # Time in different power states
system.mem_ctrls0.memoryStateTime::ACT    98286987750                       # Time in different power states
system.mem_ctrls0.memoryStateTime::ACT_PDN            0                       # Time in different power states
system.mem_ctrls0.actEnergy::0              586958400                       # Energy for activate commands per rank (pJ)
system.mem_ctrls0.actEnergy::1              574688520                       # Energy for activate commands per rank (pJ)
system.mem_ctrls0.preEnergy::0              320265000                       # Energy for precharge commands per rank (pJ)
system.mem_ctrls0.preEnergy::1              313570125                       # Energy for precharge commands per rank (pJ)
system.mem_ctrls0.readEnergy::0            1314417000                       # Energy for read commands per rank (pJ)
system.mem_ctrls0.readEnergy::1            1300221000                       # Energy for read commands per rank (pJ)
system.mem_ctrls0.writeEnergy::0            688493520                       # Energy for write commands per rank (pJ)
system.mem_ctrls0.writeEnergy::1            682622640                       # Energy for write commands per rank (pJ)
system.mem_ctrls0.refreshEnergy::0         8536179600                       # Energy for refresh commands per rank (pJ)
system.mem_ctrls0.refreshEnergy::1         8536179600                       # Energy for refresh commands per rank (pJ)
system.mem_ctrls0.actBackEnergy::0        49698854325                       # Energy for active background per rank (pJ)
system.mem_ctrls0.actBackEnergy::1        49265461665                       # Energy for active background per rank (pJ)
system.mem_ctrls0.preBackEnergy::0        34819993500                       # Energy for precharge background per rank (pJ)
system.mem_ctrls0.preBackEnergy::1        35200162500                       # Energy for precharge background per rank (pJ)
system.mem_ctrls0.totalEnergy::0          95965161345                       # Total energy per rank (pJ)
system.mem_ctrls0.totalEnergy::1          95872906050                       # Total energy per rank (pJ)
system.mem_ctrls0.averagePower::0          734.282274                       # Core power per rank (mW)
system.mem_ctrls0.averagePower::1          733.576378                       # Core power per rank (mW)
system.mem_ctrls1.bytes_read::ruby.dir_cntrl1     20799296                       # Number of bytes read from this memory
system.mem_ctrls1.bytes_read::total          20799296                       # Number of bytes read from this memory
system.mem_ctrls1.bytes_written::ruby.dir_cntrl1     12914688                       # Number of bytes written to this memory
system.mem_ctrls1.bytes_written::total       12914688                       # Number of bytes written to this memory
system.mem_ctrls1.num_reads::ruby.dir_cntrl1       324989                       # Number of read requests responded to by this memory
system.mem_ctrls1.num_reads::total             324989                       # Number of read requests responded to by this memory
system.mem_ctrls1.num_writes::ruby.dir_cntrl1       201792                       # Number of write requests responded to by this memory
system.mem_ctrls1.num_writes::total            201792                       # Number of write requests responded to by this memory
system.mem_ctrls1.bw_read::ruby.dir_cntrl1    159143398                       # Total read bandwidth from this memory (bytes/s)
system.mem_ctrls1.bw_read::total            159143398                       # Total read bandwidth from this memory (bytes/s)
system.mem_ctrls1.bw_write::ruby.dir_cntrl1     98815236                       # Write bandwidth from this memory (bytes/s)
system.mem_ctrls1.bw_write::total            98815236                       # Write bandwidth from this memory (bytes/s)
system.mem_ctrls1.bw_total::ruby.dir_cntrl1    257958634                       # Total bandwidth to/from this memory (bytes/s)
system.mem_ctrls1.bw_total::total           257958634                       # Total bandwidth to/from this memory (bytes/s)
system.mem_ctrls1.readReqs                     324989                       # Number of read requests accepted
system.mem_ctrls1.writeReqs                    201792                       # Number of write requests accepted
system.mem_ctrls1.readBursts                   324989                       # Number of DRAM read bursts, including those serviced by the write queue
system.mem_ctrls1.writeBursts                  201792                       # Number of DRAM write bursts, including those merged in the write queue
system.mem_ctrls1.bytesReadDRAM              20798272                       # Total number of bytes read from DRAM
system.mem_ctrls1.bytesReadWrQ                   1024                       # Total number of bytes read from write queue
system.mem_ctrls1.bytesWritten               12914560                       # Total number of bytes written to DRAM
system.mem_ctrls1.bytesReadSys               20799296                       # Total read bytes from the system interface side
system.mem_ctrls1.bytesWrittenSys            12914688                       # Total written bytes from the system interface side
system.mem_ctrls1.servicedByWrQ                    16                       # Number of DRAM read bursts serviced by the write queue
system.mem_ctrls1.mergedWrBursts                    0                       # Number of DRAM write bursts merged with an existing one
system.mem_ctrls1.neitherReadNorWriteReqs            0                       # Number of requests that are neither read nor write
system.mem_ctrls1.perBankRdBursts::0            20059                       # Per bank write bursts
system.mem_ctrls1.perBankRdBursts::1            20698                       # Per bank write bursts
system.mem_ctrls1.perBankRdBursts::2            20233                       # Per bank write bursts
system.mem_ctrls1.perBankRdBursts::3            20684                       # Per bank write bursts
system.mem_ctrls1.perBankRdBursts::4            20374                       # Per bank write bursts
system.mem_ctrls1.perBankRdBursts::5            20545                       # Per bank write bursts
system.mem_ctrls1.perBankRdBursts::6            20444                       # Per bank write bursts
system.mem_ctrls1.perBankRdBursts::7            20514                       # Per bank write bursts
system.mem_ctrls1.perBankRdBursts::8            20190                       # Per bank write bursts
system.mem_ctrls1.perBankRdBursts::9            20382                       # Per bank write bursts
system.mem_ctrls1.perBankRdBursts::10           20150                       # Per bank write bursts
system.mem_ctrls1.perBankRdBursts::11           20570                       # Per bank write bursts
system.mem_ctrls1.perBankRdBursts::12           20015                       # Per bank write bursts
system.mem_ctrls1.perBankRdBursts::13           19895                       # Per bank write bursts
system.mem_ctrls1.perBankRdBursts::14           20087                       # Per bank write bursts
system.mem_ctrls1.perBankRdBursts::15           20133                       # Per bank write bursts
system.mem_ctrls1.perBankWrBursts::0            12683                       # Per bank write bursts
system.mem_ctrls1.perBankWrBursts::1            12637                       # Per bank write bursts
system.mem_ctrls1.perBankWrBursts::2            12538                       # Per bank write bursts
system.mem_ctrls1.perBankWrBursts::3            12783                       # Per bank write bursts
system.mem_ctrls1.perBankWrBursts::4            12609                       # Per bank write bursts
system.mem_ctrls1.perBankWrBursts::5            12718                       # Per bank write bursts
system.mem_ctrls1.perBankWrBursts::6            12630                       # Per bank write bursts
system.mem_ctrls1.perBankWrBursts::7            12795                       # Per bank write bursts
system.mem_ctrls1.perBankWrBursts::8            12506                       # Per bank write bursts
system.mem_ctrls1.perBankWrBursts::9            12715                       # Per bank write bursts
system.mem_ctrls1.perBankWrBursts::10           12521                       # Per bank write bursts
system.mem_ctrls1.perBankWrBursts::11           12460                       # Per bank write bursts
system.mem_ctrls1.perBankWrBursts::12           12461                       # Per bank write bursts
system.mem_ctrls1.perBankWrBursts::13           12461                       # Per bank write bursts
system.mem_ctrls1.perBankWrBursts::14           12703                       # Per bank write bursts
system.mem_ctrls1.perBankWrBursts::15           12570                       # Per bank write bursts
system.mem_ctrls1.numRdRetry                    60435                       # Number of times read queue was full causing retry
system.mem_ctrls1.numWrRetry                     2648                       # Number of times write queue was full causing retry
system.mem_ctrls1.totGap                 130694487500                       # Total gap between requests
system.mem_ctrls1.readPktSize::0                    0                       # Read request sizes (log2)
system.mem_ctrls1.readPktSize::1                    0                       # Read request sizes (log2)
system.mem_ctrls1.readPktSize::2                    0                       # Read request sizes (log2)
system.mem_ctrls1.readPktSize::3                    0                       # Read request sizes (log2)
system.mem_ctrls1.readPktSize::4                    0                       # Read request sizes (log2)
system.mem_ctrls1.readPktSize::5                    0                       # Read request sizes (log2)
system.mem_ctrls1.readPktSize::6               324989                       # Read request sizes (log2)
system.mem_ctrls1.writePktSize::0                   0                       # Write request sizes (log2)
system.mem_ctrls1.writePktSize::1                   0                       # Write request sizes (log2)
system.mem_ctrls1.writePktSize::2                   0                       # Write request sizes (log2)
system.mem_ctrls1.writePktSize::3                   0                       # Write request sizes (log2)
system.mem_ctrls1.writePktSize::4                   0                       # Write request sizes (log2)
system.mem_ctrls1.writePktSize::5                   0                       # Write request sizes (log2)
system.mem_ctrls1.writePktSize::6              201792                       # Write request sizes (log2)
system.mem_ctrls1.rdQLenPdf::0                 171247                       # What read queue length does an incoming req see
system.mem_ctrls1.rdQLenPdf::1                   1837                       # What read queue length does an incoming req see
system.mem_ctrls1.rdQLenPdf::2                   1397                       # What read queue length does an incoming req see
system.mem_ctrls1.rdQLenPdf::3                   1501                       # What read queue length does an incoming req see
system.mem_ctrls1.rdQLenPdf::4                   1692                       # What read queue length does an incoming req see
system.mem_ctrls1.rdQLenPdf::5                   1865                       # What read queue length does an incoming req see
system.mem_ctrls1.rdQLenPdf::6                   2167                       # What read queue length does an incoming req see
system.mem_ctrls1.rdQLenPdf::7                   2387                       # What read queue length does an incoming req see
system.mem_ctrls1.rdQLenPdf::8                   2593                       # What read queue length does an incoming req see
system.mem_ctrls1.rdQLenPdf::9                   2727                       # What read queue length does an incoming req see
system.mem_ctrls1.rdQLenPdf::10                  2843                       # What read queue length does an incoming req see
system.mem_ctrls1.rdQLenPdf::11                  3043                       # What read queue length does an incoming req see
system.mem_ctrls1.rdQLenPdf::12                  3144                       # What read queue length does an incoming req see
system.mem_ctrls1.rdQLenPdf::13                  3185                       # What read queue length does an incoming req see
system.mem_ctrls1.rdQLenPdf::14                  3300                       # What read queue length does an incoming req see
system.mem_ctrls1.rdQLenPdf::15                  3303                       # What read queue length does an incoming req see
system.mem_ctrls1.rdQLenPdf::16                  3332                       # What read queue length does an incoming req see
system.mem_ctrls1.rdQLenPdf::17                  3417                       # What read queue length does an incoming req see
system.mem_ctrls1.rdQLenPdf::18                  3496                       # What read queue length does an incoming req see
system.mem_ctrls1.rdQLenPdf::19                  3344                       # What read queue length does an incoming req see
system.mem_ctrls1.rdQLenPdf::20                  3342                       # What read queue length does an incoming req see
system.mem_ctrls1.rdQLenPdf::21                  3539                       # What read queue length does an incoming req see
system.mem_ctrls1.rdQLenPdf::22                  3479                       # What read queue length does an incoming req see
system.mem_ctrls1.rdQLenPdf::23                  3542                       # What read queue length does an incoming req see
system.mem_ctrls1.rdQLenPdf::24                  3517                       # What read queue length does an incoming req see
system.mem_ctrls1.rdQLenPdf::25                  3382                       # What read queue length does an incoming req see
system.mem_ctrls1.rdQLenPdf::26                  3525                       # What read queue length does an incoming req see
system.mem_ctrls1.rdQLenPdf::27                  3470                       # What read queue length does an incoming req see
system.mem_ctrls1.rdQLenPdf::28                  3651                       # What read queue length does an incoming req see
system.mem_ctrls1.rdQLenPdf::29                  3685                       # What read queue length does an incoming req see
system.mem_ctrls1.rdQLenPdf::30                  3661                       # What read queue length does an incoming req see
system.mem_ctrls1.rdQLenPdf::31                 64360                       # What read queue length does an incoming req see
system.mem_ctrls1.wrQLenPdf::0                  35797                       # What write queue length does an incoming req see
system.mem_ctrls1.wrQLenPdf::1                  36822                       # What write queue length does an incoming req see
system.mem_ctrls1.wrQLenPdf::2                  37149                       # What write queue length does an incoming req see
system.mem_ctrls1.wrQLenPdf::3                  37328                       # What write queue length does an incoming req see
system.mem_ctrls1.wrQLenPdf::4                  37552                       # What write queue length does an incoming req see
system.mem_ctrls1.wrQLenPdf::5                   5448                       # What write queue length does an incoming req see
system.mem_ctrls1.wrQLenPdf::6                   5757                       # What write queue length does an incoming req see
system.mem_ctrls1.wrQLenPdf::7                   5939                       # What write queue length does an incoming req see
system.mem_ctrls1.bytesPerActivate::samples       127669                       # Bytes accessed per row activation
system.mem_ctrls1.bytesPerActivate::mean   264.056834                       # Bytes accessed per row activation
system.mem_ctrls1.bytesPerActivate::gmean   205.037112                       # Bytes accessed per row activation
system.mem_ctrls1.bytesPerActivate::stdev   194.009617                       # Bytes accessed per row activation
system.mem_ctrls1.bytesPerActivate::0-127        26017     20.38%     20.38% # Bytes accessed per row activation
system.mem_ctrls1.bytesPerActivate::128-255        30281     23.72%     44.10% # Bytes accessed per row activation
system.mem_ctrls1.bytesPerActivate::256-383        53351     41.79%     85.89% # Bytes accessed per row activation
system.mem_ctrls1.bytesPerActivate::384-511         6184      4.84%     90.73% # Bytes accessed per row activation
system.mem_ctrls1.bytesPerActivate::512-639         4343      3.40%     94.13% # Bytes accessed per row activation
system.mem_ctrls1.bytesPerActivate::640-767         2242      1.76%     95.89% # Bytes accessed per row activation
system.mem_ctrls1.bytesPerActivate::768-895         1441      1.13%     97.02% # Bytes accessed per row activation
system.mem_ctrls1.bytesPerActivate::896-1023         1018      0.80%     97.81% # Bytes accessed per row activation
system.mem_ctrls1.bytesPerActivate::1024-1151         2792      2.19%    100.00% # Bytes accessed per row activation
system.mem_ctrls1.bytesPerActivate::total       127669                       # Bytes accessed per row activation
system.mem_ctrls1.rdPerTurnAround::samples        36095                       # Reads before turning the bus around for writes
system.mem_ctrls1.rdPerTurnAround::mean      9.003103                       # Reads before turning the bus around for writes
system.mem_ctrls1.rdPerTurnAround::stdev    21.339663                       # Reads before turning the bus around for writes
system.mem_ctrls1.rdPerTurnAround::0-127        36045     99.86%     99.86% # Reads before turning the bus around for writes
system.mem_ctrls1.rdPerTurnAround::128-255           47      0.13%     99.99% # Reads before turning the bus around for writes
system.mem_ctrls1.rdPerTurnAround::256-383            1      0.00%     99.99% # Reads before turning the bus around for writes
system.mem_ctrls1.rdPerTurnAround::1152-1279            1      0.00%    100.00% # Reads before turning the bus around for writes
system.mem_ctrls1.rdPerTurnAround::2816-2943            1      0.00%    100.00% # Reads before turning the bus around for writes
system.mem_ctrls1.rdPerTurnAround::total        36095                       # Reads before turning the bus around for writes
system.mem_ctrls1.wrPerTurnAround::samples        36095                       # Writes before turning the bus around for reads
system.mem_ctrls1.wrPerTurnAround::mean      5.590525                       # Writes before turning the bus around for reads
system.mem_ctrls1.wrPerTurnAround::gmean     5.395171                       # Writes before turning the bus around for reads
system.mem_ctrls1.wrPerTurnAround::stdev     1.941774                       # Writes before turning the bus around for reads
system.mem_ctrls1.wrPerTurnAround::4-7          32804     90.88%     90.88% # Writes before turning the bus around for reads
system.mem_ctrls1.wrPerTurnAround::8-11          2098      5.81%     96.69% # Writes before turning the bus around for reads
system.mem_ctrls1.wrPerTurnAround::12-15          733      2.03%     98.73% # Writes before turning the bus around for reads
system.mem_ctrls1.wrPerTurnAround::16-19          460      1.27%    100.00% # Writes before turning the bus around for reads
system.mem_ctrls1.wrPerTurnAround::total        36095                       # Writes before turning the bus around for reads
system.mem_ctrls1.totQLat                 28837917365                       # Total ticks spent queuing
system.mem_ctrls1.totMemAccLat            34931161115                       # Total ticks spent from burst creation until serviced by the DRAM
system.mem_ctrls1.totBusLat                1624865000                       # Total ticks spent in databus transfers
system.mem_ctrls1.avgQLat                    88739.43                       # Average queueing delay per DRAM burst
system.mem_ctrls1.avgBusLat                   5000.00                       # Average bus latency per DRAM burst
system.mem_ctrls1.avgMemAccLat              107489.43                       # Average memory access latency per DRAM burst
system.mem_ctrls1.avgRdBW                      159.14                       # Average DRAM read bandwidth in MiByte/s
system.mem_ctrls1.avgWrBW                       98.81                       # Average achieved write bandwidth in MiByte/s
system.mem_ctrls1.avgRdBWSys                   159.14                       # Average system read bandwidth in MiByte/s
system.mem_ctrls1.avgWrBWSys                    98.82                       # Average system write bandwidth in MiByte/s
system.mem_ctrls1.peakBW                     12800.00                       # Theoretical peak bandwidth in MiByte/s
system.mem_ctrls1.busUtil                        2.02                       # Data bus utilization in percentage
system.mem_ctrls1.busUtilRead                    1.24                       # Data bus utilization in percentage for reads
system.mem_ctrls1.busUtilWrite                   0.77                       # Data bus utilization in percentage for writes
system.mem_ctrls1.avgRdQLen                      1.23                       # Average read queue length when enqueuing
system.mem_ctrls1.avgWrQLen                      2.98                       # Average write queue length when enqueuing
system.mem_ctrls1.readRowHits                  254473                       # Number of row buffer hits during reads
system.mem_ctrls1.writeRowHits                 144613                       # Number of row buffer hits during writes
system.mem_ctrls1.readRowHitRate                78.31                       # Row buffer hit rate for reads
system.mem_ctrls1.writeRowHitRate               71.66                       # Row buffer hit rate for writes
system.mem_ctrls1.avgGap                    248100.23                       # Average gap between requests
system.mem_ctrls1.pageHitRate                   75.76                       # Row buffer hit rate, read and write combined
system.mem_ctrls1.memoryStateTime::IDLE   28549552250                       # Time in different power states
system.mem_ctrls1.memoryStateTime::REF     4364100000                       # Time in different power states
system.mem_ctrls1.memoryStateTime::PRE_PDN            0                       # Time in different power states
system.mem_ctrls1.memoryStateTime::ACT    97779082250                       # Time in different power states
system.mem_ctrls1.memoryStateTime::ACT_PDN            0                       # Time in different power states
system.mem_ctrls1.actEnergy::0              489736800                       # Energy for activate commands per rank (pJ)
system.mem_ctrls1.actEnergy::1              475425720                       # Energy for activate commands per rank (pJ)
system.mem_ctrls1.preEnergy::0              267217500                       # Energy for precharge commands per rank (pJ)
system.mem_ctrls1.preEnergy::1              259408875                       # Energy for precharge commands per rank (pJ)
system.mem_ctrls1.readEnergy::0            1275651000                       # Energy for read commands per rank (pJ)
system.mem_ctrls1.readEnergy::1            1259044800                       # Energy for read commands per rank (pJ)
system.mem_ctrls1.writeEnergy::0            657013680                       # Energy for write commands per rank (pJ)
system.mem_ctrls1.writeEnergy::1            650553120                       # Energy for write commands per rank (pJ)
system.mem_ctrls1.refreshEnergy::0         8536179600                       # Energy for refresh commands per rank (pJ)
system.mem_ctrls1.refreshEnergy::1         8536179600                       # Energy for refresh commands per rank (pJ)
system.mem_ctrls1.actBackEnergy::0        49137822990                       # Energy for active background per rank (pJ)
system.mem_ctrls1.actBackEnergy::1        48196964745                       # Energy for active background per rank (pJ)
system.mem_ctrls1.preBackEnergy::0        35312126250                       # Energy for precharge background per rank (pJ)
system.mem_ctrls1.preBackEnergy::1        36137440500                       # Energy for precharge background per rank (pJ)
system.mem_ctrls1.totalEnergy::0          95675747820                       # Total energy per rank (pJ)
system.mem_ctrls1.totalEnergy::1          95515017360                       # Total energy per rank (pJ)
system.mem_ctrls1.averagePower::0          732.067812                       # Core power per rank (mW)
system.mem_ctrls1.averagePower::1          730.837975                       # Core power per rank (mW)
system.mem_ctrls2.bytes_read::ruby.dir_cntrl2     20796864                       # Number of bytes read from this memory
system.mem_ctrls2.bytes_read::total          20796864                       # Number of bytes read from this memory
system.mem_ctrls2.bytes_written::ruby.dir_cntrl2     12915072                       # Number of bytes written to this memory
system.mem_ctrls2.bytes_written::total       12915072                       # Number of bytes written to this memory
system.mem_ctrls2.num_reads::ruby.dir_cntrl2       324951                       # Number of read requests responded to by this memory
system.mem_ctrls2.num_reads::total             324951                       # Number of read requests responded to by this memory
system.mem_ctrls2.num_writes::ruby.dir_cntrl2       201798                       # Number of write requests responded to by this memory
system.mem_ctrls2.num_writes::total            201798                       # Number of write requests responded to by this memory
system.mem_ctrls2.bw_read::ruby.dir_cntrl2    159124790                       # Total read bandwidth from this memory (bytes/s)
system.mem_ctrls2.bw_read::total            159124790                       # Total read bandwidth from this memory (bytes/s)
system.mem_ctrls2.bw_write::ruby.dir_cntrl2     98818174                       # Write bandwidth from this memory (bytes/s)
system.mem_ctrls2.bw_write::total            98818174                       # Write bandwidth from this memory (bytes/s)
system.mem_ctrls2.bw_total::ruby.dir_cntrl2    257942964                       # Total bandwidth to/from this memory (bytes/s)
system.mem_ctrls2.bw_total::total           257942964                       # Total bandwidth to/from this memory (bytes/s)
system.mem_ctrls2.readReqs                     324951                       # Number of read requests accepted
system.mem_ctrls2.writeReqs                    201798                       # Number of write requests accepted
system.mem_ctrls2.readBursts                   324951                       # Number of DRAM read bursts, including those serviced by the write queue
system.mem_ctrls2.writeBursts                  201798                       # Number of DRAM write bursts, including those merged in the write queue
system.mem_ctrls2.bytesReadDRAM              20795840                       # Total number of bytes read from DRAM
system.mem_ctrls2.bytesReadWrQ                   1024                       # Total number of bytes read from write queue
system.mem_ctrls2.bytesWritten               12914944                       # Total number of bytes written to DRAM
system.mem_ctrls2.bytesReadSys               20796864                       # Total read bytes from the system interface side
system.mem_ctrls2.bytesWrittenSys            12915072                       # Total written bytes from the system interface side
system.mem_ctrls2.servicedByWrQ                    16                       # Number of DRAM read bursts serviced by the write queue
system.mem_ctrls2.mergedWrBursts                    0                       # Number of DRAM write bursts merged with an existing one
system.mem_ctrls2.neitherReadNorWriteReqs            0                       # Number of requests that are neither read nor write
system.mem_ctrls2.perBankRdBursts::0            20056                       # Per bank write bursts
system.mem_ctrls2.perBankRdBursts::1            20678                       # Per bank write bursts
system.mem_ctrls2.perBankRdBursts::2            20244                       # Per bank write bursts
system.mem_ctrls2.perBankRdBursts::3            20729                       # Per bank write bursts
system.mem_ctrls2.perBankRdBursts::4            20380                       # Per bank write bursts
system.mem_ctrls2.perBankRdBursts::5            20526                       # Per bank write bursts
system.mem_ctrls2.perBankRdBursts::6            20411                       # Per bank write bursts
system.mem_ctrls2.perBankRdBursts::7            20489                       # Per bank write bursts
system.mem_ctrls2.perBankRdBursts::8            20154                       # Per bank write bursts
system.mem_ctrls2.perBankRdBursts::9            20392                       # Per bank write bursts
system.mem_ctrls2.perBankRdBursts::10           20158                       # Per bank write bursts
system.mem_ctrls2.perBankRdBursts::11           20587                       # Per bank write bursts
system.mem_ctrls2.perBankRdBursts::12           20034                       # Per bank write bursts
system.mem_ctrls2.perBankRdBursts::13           19853                       # Per bank write bursts
system.mem_ctrls2.perBankRdBursts::14           20075                       # Per bank write bursts
system.mem_ctrls2.perBankRdBursts::15           20169                       # Per bank write bursts
system.mem_ctrls2.perBankWrBursts::0            12677                       # Per bank write bursts
system.mem_ctrls2.perBankWrBursts::1            12636                       # Per bank write bursts
system.mem_ctrls2.perBankWrBursts::2            12533                       # Per bank write bursts
system.mem_ctrls2.perBankWrBursts::3            12791                       # Per bank write bursts
system.mem_ctrls2.perBankWrBursts::4            12608                       # Per bank write bursts
system.mem_ctrls2.perBankWrBursts::5            12702                       # Per bank write bursts
system.mem_ctrls2.perBankWrBursts::6            12638                       # Per bank write bursts
system.mem_ctrls2.perBankWrBursts::7            12794                       # Per bank write bursts
system.mem_ctrls2.perBankWrBursts::8            12490                       # Per bank write bursts
system.mem_ctrls2.perBankWrBursts::9            12721                       # Per bank write bursts
system.mem_ctrls2.perBankWrBursts::10           12518                       # Per bank write bursts
system.mem_ctrls2.perBankWrBursts::11           12474                       # Per bank write bursts
system.mem_ctrls2.perBankWrBursts::12           12468                       # Per bank write bursts
system.mem_ctrls2.perBankWrBursts::13           12455                       # Per bank write bursts
system.mem_ctrls2.perBankWrBursts::14           12708                       # Per bank write bursts
system.mem_ctrls2.perBankWrBursts::15           12583                       # Per bank write bursts
system.mem_ctrls2.numRdRetry                    58148                       # Number of times read queue was full causing retry
system.mem_ctrls2.numWrRetry                     2626                       # Number of times write queue was full causing retry
system.mem_ctrls2.totGap                 130695221500                       # Total gap between requests
system.mem_ctrls2.readPktSize::0                    0                       # Read request sizes (log2)
system.mem_ctrls2.readPktSize::1                    0                       # Read request sizes (log2)
system.mem_ctrls2.readPktSize::2                    0                       # Read request sizes (log2)
system.mem_ctrls2.readPktSize::3                    0                       # Read request sizes (log2)
system.mem_ctrls2.readPktSize::4                    0                       # Read request sizes (log2)
system.mem_ctrls2.readPktSize::5                    0                       # Read request sizes (log2)
system.mem_ctrls2.readPktSize::6               324951                       # Read request sizes (log2)
system.mem_ctrls2.writePktSize::0                   0                       # Write request sizes (log2)
system.mem_ctrls2.writePktSize::1                   0                       # Write request sizes (log2)
system.mem_ctrls2.writePktSize::2                   0                       # Write request sizes (log2)
system.mem_ctrls2.writePktSize::3                   0                       # Write request sizes (log2)
system.mem_ctrls2.writePktSize::4                   0                       # Write request sizes (log2)
system.mem_ctrls2.writePktSize::5                   0                       # Write request sizes (log2)
system.mem_ctrls2.writePktSize::6              201798                       # Write request sizes (log2)
system.mem_ctrls2.rdQLenPdf::0                 171426                       # What read queue length does an incoming req see
system.mem_ctrls2.rdQLenPdf::1                   1669                       # What read queue length does an incoming req see
system.mem_ctrls2.rdQLenPdf::2                   1455                       # What read queue length does an incoming req see
system.mem_ctrls2.rdQLenPdf::3                   1497                       # What read queue length does an incoming req see
system.mem_ctrls2.rdQLenPdf::4                   1738                       # What read queue length does an incoming req see
system.mem_ctrls2.rdQLenPdf::5                   1947                       # What read queue length does an incoming req see
system.mem_ctrls2.rdQLenPdf::6                   2192                       # What read queue length does an incoming req see
system.mem_ctrls2.rdQLenPdf::7                   2443                       # What read queue length does an incoming req see
system.mem_ctrls2.rdQLenPdf::8                   2532                       # What read queue length does an incoming req see
system.mem_ctrls2.rdQLenPdf::9                   2690                       # What read queue length does an incoming req see
system.mem_ctrls2.rdQLenPdf::10                  2801                       # What read queue length does an incoming req see
system.mem_ctrls2.rdQLenPdf::11                  3003                       # What read queue length does an incoming req see
system.mem_ctrls2.rdQLenPdf::12                  3043                       # What read queue length does an incoming req see
system.mem_ctrls2.rdQLenPdf::13                  3084                       # What read queue length does an incoming req see
system.mem_ctrls2.rdQLenPdf::14                  3266                       # What read queue length does an incoming req see
system.mem_ctrls2.rdQLenPdf::15                  3242                       # What read queue length does an incoming req see
system.mem_ctrls2.rdQLenPdf::16                  3465                       # What read queue length does an incoming req see
system.mem_ctrls2.rdQLenPdf::17                  3359                       # What read queue length does an incoming req see
system.mem_ctrls2.rdQLenPdf::18                  3442                       # What read queue length does an incoming req see
system.mem_ctrls2.rdQLenPdf::19                  3647                       # What read queue length does an incoming req see
system.mem_ctrls2.rdQLenPdf::20                  3621                       # What read queue length does an incoming req see
system.mem_ctrls2.rdQLenPdf::21                  3602                       # What read queue length does an incoming req see
system.mem_ctrls2.rdQLenPdf::22                  3602                       # What read queue length does an incoming req see
system.mem_ctrls2.rdQLenPdf::23                  3608                       # What read queue length does an incoming req see
system.mem_ctrls2.rdQLenPdf::24                  3606                       # What read queue length does an incoming req see
system.mem_ctrls2.rdQLenPdf::25                  3735                       # What read queue length does an incoming req see
system.mem_ctrls2.rdQLenPdf::26                  3653                       # What read queue length does an incoming req see
system.mem_ctrls2.rdQLenPdf::27                  3731                       # What read queue length does an incoming req see
system.mem_ctrls2.rdQLenPdf::28                  3782                       # What read queue length does an incoming req see
system.mem_ctrls2.rdQLenPdf::29                  3828                       # What read queue length does an incoming req see
system.mem_ctrls2.rdQLenPdf::30                  3915                       # What read queue length does an incoming req see
system.mem_ctrls2.rdQLenPdf::31                 62311                       # What read queue length does an incoming req see
system.mem_ctrls2.wrQLenPdf::0                  35834                       # What write queue length does an incoming req see
system.mem_ctrls2.wrQLenPdf::1                  36824                       # What write queue length does an incoming req see
system.mem_ctrls2.wrQLenPdf::2                  37183                       # What write queue length does an incoming req see
system.mem_ctrls2.wrQLenPdf::3                  37430                       # What write queue length does an incoming req see
system.mem_ctrls2.wrQLenPdf::4                  37572                       # What write queue length does an incoming req see
system.mem_ctrls2.wrQLenPdf::5                   5329                       # What write queue length does an incoming req see
system.mem_ctrls2.wrQLenPdf::6                   5709                       # What write queue length does an incoming req see
system.mem_ctrls2.wrQLenPdf::7                   5917                       # What write queue length does an incoming req see
system.mem_ctrls2.bytesPerActivate::samples       127326                       # Bytes accessed per row activation
system.mem_ctrls2.bytesPerActivate::mean   264.755101                       # Bytes accessed per row activation
system.mem_ctrls2.bytesPerActivate::gmean   205.746338                       # Bytes accessed per row activation
system.mem_ctrls2.bytesPerActivate::stdev   193.820701                       # Bytes accessed per row activation
system.mem_ctrls2.bytesPerActivate::0-127        25978     20.40%     20.40% # Bytes accessed per row activation
system.mem_ctrls2.bytesPerActivate::128-255        29373     23.07%     43.47% # Bytes accessed per row activation
system.mem_ctrls2.bytesPerActivate::256-383        54016     42.42%     85.90% # Bytes accessed per row activation
system.mem_ctrls2.bytesPerActivate::384-511         6060      4.76%     90.65% # Bytes accessed per row activation
system.mem_ctrls2.bytesPerActivate::512-639         4461      3.50%     94.16% # Bytes accessed per row activation
system.mem_ctrls2.bytesPerActivate::640-767         2248      1.77%     95.92% # Bytes accessed per row activation
system.mem_ctrls2.bytesPerActivate::768-895         1359      1.07%     96.99% # Bytes accessed per row activation
system.mem_ctrls2.bytesPerActivate::896-1023         1000      0.79%     97.78% # Bytes accessed per row activation
system.mem_ctrls2.bytesPerActivate::1024-1151         2831      2.22%    100.00% # Bytes accessed per row activation
system.mem_ctrls2.bytesPerActivate::total       127326                       # Bytes accessed per row activation
system.mem_ctrls2.rdPerTurnAround::samples        36123                       # Reads before turning the bus around for writes
system.mem_ctrls2.rdPerTurnAround::mean      8.994325                       # Reads before turning the bus around for writes
system.mem_ctrls2.rdPerTurnAround::stdev    21.351759                       # Reads before turning the bus around for writes
system.mem_ctrls2.rdPerTurnAround::0-127        36074     99.86%     99.86% # Reads before turning the bus around for writes
system.mem_ctrls2.rdPerTurnAround::128-255           47      0.13%     99.99% # Reads before turning the bus around for writes
system.mem_ctrls2.rdPerTurnAround::1152-1279            1      0.00%    100.00% # Reads before turning the bus around for writes
system.mem_ctrls2.rdPerTurnAround::2816-2943            1      0.00%    100.00% # Reads before turning the bus around for writes
system.mem_ctrls2.rdPerTurnAround::total        36123                       # Reads before turning the bus around for writes
system.mem_ctrls2.wrPerTurnAround::samples        36123                       # Writes before turning the bus around for reads
system.mem_ctrls2.wrPerTurnAround::mean      5.586358                       # Writes before turning the bus around for reads
system.mem_ctrls2.wrPerTurnAround::gmean     5.392685                       # Writes before turning the bus around for reads
system.mem_ctrls2.wrPerTurnAround::stdev     1.931753                       # Writes before turning the bus around for reads
system.mem_ctrls2.wrPerTurnAround::4-7          32841     90.91%     90.91% # Writes before turning the bus around for reads
system.mem_ctrls2.wrPerTurnAround::8-11          2089      5.78%     96.70% # Writes before turning the bus around for reads
system.mem_ctrls2.wrPerTurnAround::12-15          755      2.09%     98.79% # Writes before turning the bus around for reads
system.mem_ctrls2.wrPerTurnAround::16-19          438      1.21%    100.00% # Writes before turning the bus around for reads
system.mem_ctrls2.wrPerTurnAround::total        36123                       # Writes before turning the bus around for reads
system.mem_ctrls2.totQLat                 28695951782                       # Total ticks spent queuing
system.mem_ctrls2.totMemAccLat            34788483032                       # Total ticks spent from burst creation until serviced by the DRAM
system.mem_ctrls2.totBusLat                1624675000                       # Total ticks spent in databus transfers
system.mem_ctrls2.avgQLat                    88312.90                       # Average queueing delay per DRAM burst
system.mem_ctrls2.avgBusLat                   5000.00                       # Average bus latency per DRAM burst
system.mem_ctrls2.avgMemAccLat              107062.90                       # Average memory access latency per DRAM burst
system.mem_ctrls2.avgRdBW                      159.12                       # Average DRAM read bandwidth in MiByte/s
system.mem_ctrls2.avgWrBW                       98.82                       # Average achieved write bandwidth in MiByte/s
system.mem_ctrls2.avgRdBWSys                   159.12                       # Average system read bandwidth in MiByte/s
system.mem_ctrls2.avgWrBWSys                    98.82                       # Average system write bandwidth in MiByte/s
system.mem_ctrls2.peakBW                     12800.00                       # Theoretical peak bandwidth in MiByte/s
system.mem_ctrls2.busUtil                        2.02                       # Data bus utilization in percentage
system.mem_ctrls2.busUtilRead                    1.24                       # Data bus utilization in percentage for reads
system.mem_ctrls2.busUtilWrite                   0.77                       # Data bus utilization in percentage for writes
system.mem_ctrls2.avgRdQLen                      1.23                       # Average read queue length when enqueuing
system.mem_ctrls2.avgWrQLen                      2.95                       # Average write queue length when enqueuing
system.mem_ctrls2.readRowHits                  254403                       # Number of row buffer hits during reads
system.mem_ctrls2.writeRowHits                 144997                       # Number of row buffer hits during writes
system.mem_ctrls2.readRowHitRate                78.29                       # Row buffer hit rate for reads
system.mem_ctrls2.writeRowHitRate               71.85                       # Row buffer hit rate for writes
system.mem_ctrls2.avgGap                    248116.70                       # Average gap between requests
system.mem_ctrls2.pageHitRate                   75.83                       # Row buffer hit rate, read and write combined
system.mem_ctrls2.memoryStateTime::IDLE   28404355250                       # Time in different power states
system.mem_ctrls2.memoryStateTime::REF     4364100000                       # Time in different power states
system.mem_ctrls2.memoryStateTime::PRE_PDN            0                       # Time in different power states
system.mem_ctrls2.memoryStateTime::ACT    97924402750                       # Time in different power states
system.mem_ctrls2.memoryStateTime::ACT_PDN            0                       # Time in different power states
system.mem_ctrls2.actEnergy::0              488202120                       # Energy for activate commands per rank (pJ)
system.mem_ctrls2.actEnergy::1              474367320                       # Energy for activate commands per rank (pJ)
system.mem_ctrls2.preEnergy::0              266380125                       # Energy for precharge commands per rank (pJ)
system.mem_ctrls2.preEnergy::1              258831375                       # Energy for precharge commands per rank (pJ)
system.mem_ctrls2.readEnergy::0            1275354600                       # Energy for read commands per rank (pJ)
system.mem_ctrls2.readEnergy::1            1259052600                       # Energy for read commands per rank (pJ)
system.mem_ctrls2.writeEnergy::0            656935920                       # Energy for write commands per rank (pJ)
system.mem_ctrls2.writeEnergy::1            650702160                       # Energy for write commands per rank (pJ)
system.mem_ctrls2.refreshEnergy::0         8536179600                       # Energy for refresh commands per rank (pJ)
system.mem_ctrls2.refreshEnergy::1         8536179600                       # Energy for refresh commands per rank (pJ)
system.mem_ctrls2.actBackEnergy::0        48868810920                       # Energy for active background per rank (pJ)
system.mem_ctrls2.actBackEnergy::1        47937882645                       # Energy for active background per rank (pJ)
system.mem_ctrls2.preBackEnergy::0        35548101750                       # Energy for precharge background per rank (pJ)
system.mem_ctrls2.preBackEnergy::1        36364705500                       # Energy for precharge background per rank (pJ)
system.mem_ctrls2.totalEnergy::0          95639965035                       # Total energy per rank (pJ)
system.mem_ctrls2.totalEnergy::1          95481721200                       # Total energy per rank (pJ)
system.mem_ctrls2.averagePower::0          731.794018                       # Core power per rank (mW)
system.mem_ctrls2.averagePower::1          730.583208                       # Core power per rank (mW)
system.mem_ctrls3.bytes_read::ruby.dir_cntrl3     20776448                       # Number of bytes read from this memory
system.mem_ctrls3.bytes_read::total          20776448                       # Number of bytes read from this memory
system.mem_ctrls3.bytes_written::ruby.dir_cntrl3     12913792                       # Number of bytes written to this memory
system.mem_ctrls3.bytes_written::total       12913792                       # Number of bytes written to this memory
system.mem_ctrls3.num_reads::ruby.dir_cntrl3       324632                       # Number of read requests responded to by this memory
system.mem_ctrls3.num_reads::total             324632                       # Number of read requests responded to by this memory
system.mem_ctrls3.num_writes::ruby.dir_cntrl3       201778                       # Number of write requests responded to by this memory
system.mem_ctrls3.num_writes::total            201778                       # Number of write requests responded to by this memory
system.mem_ctrls3.bw_read::ruby.dir_cntrl3    158968579                       # Total read bandwidth from this memory (bytes/s)
system.mem_ctrls3.bw_read::total            158968579                       # Total read bandwidth from this memory (bytes/s)
system.mem_ctrls3.bw_write::ruby.dir_cntrl3     98808380                       # Write bandwidth from this memory (bytes/s)
system.mem_ctrls3.bw_write::total            98808380                       # Write bandwidth from this memory (bytes/s)
system.mem_ctrls3.bw_total::ruby.dir_cntrl3    257776959                       # Total bandwidth to/from this memory (bytes/s)
system.mem_ctrls3.bw_total::total           257776959                       # Total bandwidth to/from this memory (bytes/s)
system.mem_ctrls3.readReqs                     324632                       # Number of read requests accepted
system.mem_ctrls3.writeReqs                    201778                       # Number of write requests accepted
system.mem_ctrls3.readBursts                   324632                       # Number of DRAM read bursts, including those serviced by the write queue
system.mem_ctrls3.writeBursts                  201778                       # Number of DRAM write bursts, including those merged in the write queue
system.mem_ctrls3.bytesReadDRAM              20775616                       # Total number of bytes read from DRAM
system.mem_ctrls3.bytesReadWrQ                    832                       # Total number of bytes read from write queue
system.mem_ctrls3.bytesWritten               12913664                       # Total number of bytes written to DRAM
system.mem_ctrls3.bytesReadSys               20776448                       # Total read bytes from the system interface side
system.mem_ctrls3.bytesWrittenSys            12913792                       # Total written bytes from the system interface side
system.mem_ctrls3.servicedByWrQ                    13                       # Number of DRAM read bursts serviced by the write queue
system.mem_ctrls3.mergedWrBursts                    0                       # Number of DRAM write bursts merged with an existing one
system.mem_ctrls3.neitherReadNorWriteReqs            0                       # Number of requests that are neither read nor write
system.mem_ctrls3.perBankRdBursts::0            20050                       # Per bank write bursts
system.mem_ctrls3.perBankRdBursts::1            20651                       # Per bank write bursts
system.mem_ctrls3.perBankRdBursts::2            20160                       # Per bank write bursts
system.mem_ctrls3.perBankRdBursts::3            20701                       # Per bank write bursts
system.mem_ctrls3.perBankRdBursts::4            20313                       # Per bank write bursts
system.mem_ctrls3.perBankRdBursts::5            20524                       # Per bank write bursts
system.mem_ctrls3.perBankRdBursts::6            20426                       # Per bank write bursts
system.mem_ctrls3.perBankRdBursts::7            20470                       # Per bank write bursts
system.mem_ctrls3.perBankRdBursts::8            20145                       # Per bank write bursts
system.mem_ctrls3.perBankRdBursts::9            20381                       # Per bank write bursts
system.mem_ctrls3.perBankRdBursts::10           20194                       # Per bank write bursts
system.mem_ctrls3.perBankRdBursts::11           20539                       # Per bank write bursts
system.mem_ctrls3.perBankRdBursts::12           19978                       # Per bank write bursts
system.mem_ctrls3.perBankRdBursts::13           19846                       # Per bank write bursts
system.mem_ctrls3.perBankRdBursts::14           20101                       # Per bank write bursts
system.mem_ctrls3.perBankRdBursts::15           20140                       # Per bank write bursts
system.mem_ctrls3.perBankWrBursts::0            12683                       # Per bank write bursts
system.mem_ctrls3.perBankWrBursts::1            12626                       # Per bank write bursts
system.mem_ctrls3.perBankWrBursts::2            12540                       # Per bank write bursts
system.mem_ctrls3.perBankWrBursts::3            12781                       # Per bank write bursts
system.mem_ctrls3.perBankWrBursts::4            12608                       # Per bank write bursts
system.mem_ctrls3.perBankWrBursts::5            12705                       # Per bank write bursts
system.mem_ctrls3.perBankWrBursts::6            12634                       # Per bank write bursts
system.mem_ctrls3.perBankWrBursts::7            12787                       # Per bank write bursts
system.mem_ctrls3.perBankWrBursts::8            12487                       # Per bank write bursts
system.mem_ctrls3.perBankWrBursts::9            12724                       # Per bank write bursts
system.mem_ctrls3.perBankWrBursts::10           12518                       # Per bank write bursts
system.mem_ctrls3.perBankWrBursts::11           12480                       # Per bank write bursts
system.mem_ctrls3.perBankWrBursts::12           12464                       # Per bank write bursts
system.mem_ctrls3.perBankWrBursts::13           12460                       # Per bank write bursts
system.mem_ctrls3.perBankWrBursts::14           12714                       # Per bank write bursts
system.mem_ctrls3.perBankWrBursts::15           12565                       # Per bank write bursts
system.mem_ctrls3.numRdRetry                    53640                       # Number of times read queue was full causing retry
system.mem_ctrls3.numWrRetry                     2266                       # Number of times write queue was full causing retry
system.mem_ctrls3.totGap                 130694491000                       # Total gap between requests
system.mem_ctrls3.readPktSize::0                    0                       # Read request sizes (log2)
system.mem_ctrls3.readPktSize::1                    0                       # Read request sizes (log2)
system.mem_ctrls3.readPktSize::2                    0                       # Read request sizes (log2)
system.mem_ctrls3.readPktSize::3                    0                       # Read request sizes (log2)
system.mem_ctrls3.readPktSize::4                    0                       # Read request sizes (log2)
system.mem_ctrls3.readPktSize::5                    0                       # Read request sizes (log2)
system.mem_ctrls3.readPktSize::6               324632                       # Read request sizes (log2)
system.mem_ctrls3.writePktSize::0                   0                       # Write request sizes (log2)
system.mem_ctrls3.writePktSize::1                   0                       # Write request sizes (log2)
system.mem_ctrls3.writePktSize::2                   0                       # Write request sizes (log2)
system.mem_ctrls3.writePktSize::3                   0                       # Write request sizes (log2)
system.mem_ctrls3.writePktSize::4                   0                       # Write request sizes (log2)
system.mem_ctrls3.writePktSize::5                   0                       # Write request sizes (log2)
system.mem_ctrls3.writePktSize::6              201778                       # Write request sizes (log2)
system.mem_ctrls3.rdQLenPdf::0                 170990                       # What read queue length does an incoming req see
system.mem_ctrls3.rdQLenPdf::1                   1739                       # What read queue length does an incoming req see
system.mem_ctrls3.rdQLenPdf::2                   1474                       # What read queue length does an incoming req see
system.mem_ctrls3.rdQLenPdf::3                   1537                       # What read queue length does an incoming req see
system.mem_ctrls3.rdQLenPdf::4                   1697                       # What read queue length does an incoming req see
system.mem_ctrls3.rdQLenPdf::5                   1945                       # What read queue length does an incoming req see
system.mem_ctrls3.rdQLenPdf::6                   2113                       # What read queue length does an incoming req see
system.mem_ctrls3.rdQLenPdf::7                   2404                       # What read queue length does an incoming req see
system.mem_ctrls3.rdQLenPdf::8                   2579                       # What read queue length does an incoming req see
system.mem_ctrls3.rdQLenPdf::9                   2764                       # What read queue length does an incoming req see
system.mem_ctrls3.rdQLenPdf::10                  2854                       # What read queue length does an incoming req see
system.mem_ctrls3.rdQLenPdf::11                  3027                       # What read queue length does an incoming req see
system.mem_ctrls3.rdQLenPdf::12                  3169                       # What read queue length does an incoming req see
system.mem_ctrls3.rdQLenPdf::13                  3295                       # What read queue length does an incoming req see
system.mem_ctrls3.rdQLenPdf::14                  3359                       # What read queue length does an incoming req see
system.mem_ctrls3.rdQLenPdf::15                  3486                       # What read queue length does an incoming req see
system.mem_ctrls3.rdQLenPdf::16                  3552                       # What read queue length does an incoming req see
system.mem_ctrls3.rdQLenPdf::17                  3611                       # What read queue length does an incoming req see
system.mem_ctrls3.rdQLenPdf::18                  3555                       # What read queue length does an incoming req see
system.mem_ctrls3.rdQLenPdf::19                  3695                       # What read queue length does an incoming req see
system.mem_ctrls3.rdQLenPdf::20                  3735                       # What read queue length does an incoming req see
system.mem_ctrls3.rdQLenPdf::21                  3763                       # What read queue length does an incoming req see
system.mem_ctrls3.rdQLenPdf::22                  3866                       # What read queue length does an incoming req see
system.mem_ctrls3.rdQLenPdf::23                  3968                       # What read queue length does an incoming req see
[...]
system.ruby.L2Cache_Controller.S_I.Ack_all::total           32                      
system.ruby.L2Cache_Controller.ISS.Mem_Data |       25592      5.07%      5.07% |       15493      3.07%      8.15% |       15518      3.08%     11.22% |       15468      3.07%     14.29% |       15442      3.06%     17.35% |       15418      3.06%     20.41% |       15428      3.06%     23.47% |       15425      3.06%     26.52% |       15463      3.07%     29.59% |       15469      3.07%     32.66% |       15498      3.07%     35.73% |       15426      3.06%     38.79% |       15435      3.06%     41.85% |       15447      3.06%     44.91% |       15450      3.06%     47.97% |       15422      3.06%     51.03% |       15429      3.06%     54.09% |       15423      3.06%     57.15% |       15447      3.06%     60.21% |       15424      3.06%     63.27% |       15449      3.06%     66.33% |       15458      3.06%     69.40% |       15464      3.07%     72.46% |       15439      3.06%     75.52% |       15451      3.06%     78.59% |       15448      3.06%     81.65% |       15424      3.06%     84.71% |       15411      3.06%     87.76% |       15449      3.06%     90.83% |       15416      3.06%     93.88% |       15408      3.05%     96.94% |       15439      3.06%    100.00%
system.ruby.L2Cache_Controller.ISS.Mem_Data::total       504373                      
system.ruby.L2Cache_Controller.IS.Mem_Data |         503      3.21%      3.21% |         454      2.89%      6.10% |         438      2.79%      8.89% |         449      2.86%     11.75% |         450      2.87%     14.62% |         430      2.74%     17.36% |         472      3.01%     20.37% |         491      3.13%     23.50% |         505      3.22%     26.72% |         445      2.84%     29.56% |         487      3.10%     32.66% |         498      3.17%     35.84% |         551      3.51%     39.35% |         523      3.33%     42.69% |         510      3.25%     45.94% |         492      3.14%     49.07% |         515      3.28%     52.36% |         532      3.39%     55.75% |         529      3.37%     59.12% |         483      3.08%     62.20% |         473      3.02%     65.21% |         523      3.33%     68.55% |         477      3.04%     71.59% |         451      2.87%     74.46% |         518      3.30%     77.77% |         578      3.68%     81.45% |         522      3.33%     84.78% |         479      3.05%     87.83% |         457      2.91%     90.74% |         511      3.26%     94.00% |         487      3.10%     97.11% |         454      2.89%    100.00%
system.ruby.L2Cache_Controller.IS.Mem_Data::total        15687                      
system.ruby.L2Cache_Controller.IM.Mem_Data |       24783      3.14%      3.14% |       24665      3.12%      6.26% |       24674      3.12%      9.39% |       24679      3.12%     12.51% |       24670      3.12%     15.63% |       24674      3.12%     18.76% |       24675      3.12%     21.88% |       24666      3.12%     25.01% |       24681      3.13%     28.13% |       24680      3.13%     31.26% |       24663      3.12%     34.38% |       24687      3.13%     37.51% |       24674      3.12%     40.63% |       24671      3.12%     43.75% |       24669      3.12%     46.88% |       24662      3.12%     50.00% |       24683      3.13%     53.13% |       24680      3.13%     56.25% |       24677      3.12%     59.38% |       24675      3.12%     62.50% |       24688      3.13%     65.63% |       24699      3.13%     68.75% |       24670      3.12%     71.88% |       24674      3.12%     75.00% |       24686      3.13%     78.13% |       24680      3.13%     81.25% |       24683      3.13%     84.38% |       24670      3.12%     87.50% |       24671      3.12%     90.63% |       24672      3.12%     93.75% |       24681      3.13%     96.88% |       24668      3.12%    100.00%
system.ruby.L2Cache_Controller.IM.Mem_Data::total       789730                      
system.ruby.L2Cache_Controller.SS_MB.Exclusive_Unblock |           2      4.17%      4.17% |           4      8.33%     12.50% |           5     10.42%     22.92% |           3      6.25%     29.17% |           0      0.00%     29.17% |           0      0.00%     29.17% |           0      0.00%     29.17% |           0      0.00%     29.17% |           1      2.08%     31.25% |           1      2.08%     33.33% |           0      0.00%     33.33% |           1      2.08%     35.42% |           6     12.50%     47.92% |           0      0.00%     47.92% |           2      4.17%     52.08% |           0      0.00%     52.08% |           0      0.00%     52.08% |           0      0.00%     52.08% |           7     14.58%     66.67% |           5     10.42%     77.08% |           1      2.08%     79.17% |           0      0.00%     79.17% |           0      0.00%     79.17% |           0      0.00%     79.17% |           1      2.08%     81.25% |           1      2.08%     83.33% |           1      2.08%     85.42% |           1      2.08%     87.50% |           5     10.42%     97.92% |           0      0.00%     97.92% |           1      2.08%    100.00% |           0      0.00%    100.00%
system.ruby.L2Cache_Controller.SS_MB.Exclusive_Unblock::total           48                      
system.ruby.L2Cache_Controller.MT_MB.L1_PUTX |           8    100.00%    100.00% |           0      0.00%    100.00% |           0      0.00%    100.00% |           0      0.00%    100.00% |           0      0.00%    100.00% |           0      0.00%    100.00% |           0      0.00%    100.00% |           0      0.00%    100.00% |           0      0.00%    100.00% |           0      0.00%    100.00% |           0      0.00%    100.00% |           0      0.00%    100.00% |           0      0.00%    100.00% |           0      0.00%    100.00% |           0      0.00%    100.00% |           0      0.00%    100.00% |           0      0.00%    100.00% |           0      0.00%    100.00% |           0      0.00%    100.00% |           0      0.00%    100.00% |           0      0.00%    100.00% |           0      0.00%    100.00% |           0      0.00%    100.00% |           0      0.00%    100.00% |           0      0.00%    100.00% |           0      0.00%    100.00% |           0      0.00%    100.00% |           0      0.00%    100.00% |           0      0.00%    100.00% |           0      0.00%    100.00% |           0      0.00%    100.00% |           0      0.00%    100.00%
system.ruby.L2Cache_Controller.MT_MB.L1_PUTX::total            8                      
system.ruby.L2Cache_Controller.MT_MB.Exclusive_Unblock |      171928      9.58%      9.58% |       54292      3.03%     12.61% |       49286      2.75%     15.36% |       52993      2.95%     18.31% |       53510      2.98%     21.29% |       49516      2.76%     24.05% |       45957      2.56%     26.61% |       45965      2.56%     29.17% |       51547      2.87%     32.05% |       49816      2.78%     34.82% |       54068      3.01%     37.84% |       51036      2.84%     40.68% |       48289      2.69%     43.37% |       46923      2.62%     45.99% |       47887      2.67%     48.66% |       46624      2.60%     51.26% |       50571      2.82%     54.08% |       48377      2.70%     56.77% |       49902      2.78%     59.55% |       54011      3.01%     62.56% |       54531      3.04%     65.60% |       63393      3.53%     69.14% |       58010      3.23%     72.37% |       53250      2.97%     75.34% |       53476      2.98%     78.32% |       51445      2.87%     81.19% |       52509      2.93%     84.11% |       52311      2.92%     87.03% |       55509      3.09%     90.12% |       55171      3.08%     93.20% |       63469      3.54%     96.73% |       58603      3.27%    100.00%
system.ruby.L2Cache_Controller.MT_MB.Exclusive_Unblock::total      1794175                      
system.ruby.L2Cache_Controller.MT_IIB.WB_Data |           0      0.00%      0.00% |           0      0.00%      0.00% |           1      7.14%      7.14% |           1      7.14%     14.29% |           1      7.14%     21.43% |           0      0.00%     21.43% |           1      7.14%     28.57% |           0      0.00%     28.57% |           1      7.14%     35.71% |           1      7.14%     42.86% |           1      7.14%     50.00% |           1      7.14%     57.14% |           1      7.14%     64.29% |           0      0.00%     64.29% |           1      7.14%     71.43% |           1      7.14%     78.57% |           1      7.14%     85.71% |           1      7.14%     92.86% |           1      7.14%    100.00% |           0      0.00%    100.00% |           0      0.00%    100.00% |           0      0.00%    100.00% |           0      0.00%    100.00% |           0      0.00%    100.00% |           0      0.00%    100.00% |           0      0.00%    100.00% |           0      0.00%    100.00% |           0      0.00%    100.00% |           0      0.00%    100.00% |           0      0.00%    100.00% |           0      0.00%    100.00% |           0      0.00%    100.00%
system.ruby.L2Cache_Controller.MT_IIB.WB_Data::total           14                      
system.ruby.L2Cache_Controller.MT_IIB.WB_Data_clean |           5    100.00%    100.00% |           0      0.00%    100.00% |           0      0.00%    100.00% |           0      0.00%    100.00% |           0      0.00%    100.00% |           0      0.00%    100.00% |           0      0.00%    100.00% |           0      0.00%    100.00% |           0      0.00%    100.00% |           0      0.00%    100.00% |           0      0.00%    100.00% |           0      0.00%    100.00% |           0      0.00%    100.00% |           0      0.00%    100.00% |           0      0.00%    100.00% |           0      0.00%    100.00% |           0      0.00%    100.00% |           0      0.00%    100.00% |           0      0.00%    100.00% |           0      0.00%    100.00% |           0      0.00%    100.00% |           0      0.00%    100.00% |           0      0.00%    100.00% |           0      0.00%    100.00% |           0      0.00%    100.00% |           0      0.00%    100.00% |           0      0.00%    100.00% |           0      0.00%    100.00% |           0      0.00%    100.00% |           0      0.00%    100.00% |           0      0.00%    100.00% |           0      0.00%    100.00%
system.ruby.L2Cache_Controller.MT_IIB.WB_Data_clean::total            5                      
system.ruby.L2Cache_Controller.MT_IIB.Unblock |           0      0.00%      0.00% |           0      0.00%      0.00% |           0      0.00%      0.00% |           0      0.00%      0.00% |           0      0.00%      0.00% |           0      0.00%      0.00% |           0      0.00%      0.00% |           1     50.00%     50.00% |           0      0.00%     50.00% |           0      0.00%     50.00% |           0      0.00%     50.00% |           0      0.00%     50.00% |           0      0.00%     50.00% |           1     50.00%    100.00% |           0      0.00%    100.00% |           0      0.00%    100.00% |           0      0.00%    100.00% |           0      0.00%    100.00% |           0      0.00%    100.00% |           0      0.00%    100.00% |           0      0.00%    100.00% |           0      0.00%    100.00% |           0      0.00%    100.00% |           0      0.00%    100.00% |           0      0.00%    100.00% |           0      0.00%    100.00% |           0      0.00%    100.00% |           0      0.00%    100.00% |           0      0.00%    100.00% |           0      0.00%    100.00% |           0      0.00%    100.00% |           0      0.00%    100.00%
system.ruby.L2Cache_Controller.MT_IIB.Unblock::total            2                      
system.ruby.L2Cache_Controller.MT_IB.WB_Data |           0      0.00%      0.00% |           0      0.00%      0.00% |           0      0.00%      0.00% |           0      0.00%      0.00% |           0      0.00%      0.00% |           0      0.00%      0.00% |           0      0.00%      0.00% |           1     50.00%     50.00% |           0      0.00%     50.00% |           0      0.00%     50.00% |           0      0.00%     50.00% |           0      0.00%     50.00% |           0      0.00%     50.00% |           1     50.00%    100.00% |           0      0.00%    100.00% |           0      0.00%    100.00% |           0      0.00%    100.00% |           0      0.00%    100.00% |           0      0.00%    100.00% |           0      0.00%    100.00% |           0      0.00%    100.00% |           0      0.00%    100.00% |           0      0.00%    100.00% |           0      0.00%    100.00% |           0      0.00%    100.00% |           0      0.00%    100.00% |           0      0.00%    100.00% |           0      0.00%    100.00% |           0      0.00%    100.00% |           0      0.00%    100.00% |           0      0.00%    100.00% |           0      0.00%    100.00%
system.ruby.L2Cache_Controller.MT_IB.WB_Data::total            2                      
system.ruby.L2Cache_Controller.MT_SB.Unblock |           5     26.32%     26.32% |           0      0.00%     26.32% |           1      5.26%     31.58% |           1      5.26%     36.84% |           1      5.26%     42.11% |           0      0.00%     42.11% |           1      5.26%     47.37% |           0      0.00%     47.37% |           1      5.26%     52.63% |           1      5.26%     57.89% |           1      5.26%     63.16% |           1      5.26%     68.42% |           1      5.26%     73.68% |           0      0.00%     73.68% |           1      5.26%     78.95% |           1      5.26%     84.21% |           1      5.26%     89.47% |           1      5.26%     94.74% |           1      5.26%    100.00% |           0      0.00%    100.00% |           0      0.00%    100.00% |           0      0.00%    100.00% |           0      0.00%    100.00% |           0      0.00%    100.00% |           0      0.00%    100.00% |           0      0.00%    100.00% |           0      0.00%    100.00% |           0      0.00%    100.00% |           0      0.00%    100.00% |           0      0.00%    100.00% |           0      0.00%    100.00% |           0      0.00%    100.00%
system.ruby.L2Cache_Controller.MT_SB.Unblock::total           19                      
system.ruby.SimicsNetworkPortInterface_Controller.MessageSend |       50902     13.70%     13.70% |      185736     50.00%     63.70% |       16876      4.54%     68.25% |       18029      4.85%     73.10% |       16706      4.50%     77.60% |       18982      5.11%     82.71% |       16697      4.49%     87.20% |       17900      4.82%     92.02% |       14024      3.78%     95.80% |       15620      4.20%    100.00% |           0      0.00%    100.00% |           0      0.00%    100.00% |           0      0.00%    100.00% |           0      0.00%    100.00% |           0      0.00%    100.00% |           0      0.00%    100.00% |           0      0.00%    100.00% |           0      0.00%    100.00% |           0      0.00%    100.00% |           0      0.00%    100.00% |           0      0.00%    100.00% |           0      0.00%    100.00% |           0      0.00%    100.00% |           0      0.00%    100.00% |           0      0.00%    100.00% |           0      0.00%    100.00% |           0      0.00%    100.00% |           0      0.00%    100.00% |           0      0.00%    100.00% |           0      0.00%    100.00% |           0      0.00%    100.00% |           0      0.00%    100.00%
system.ruby.SimicsNetworkPortInterface_Controller.MessageSend::total       371472                      
system.ruby.SimicsNetworkPortInterface_Controller.MessageRecv |       50902     13.70%     13.70% |      185736     50.00%     63.70% |       16876      4.54%     68.25% |       18029      4.85%     73.10% |       16706      4.50%     77.60% |       18982      5.11%     82.71% |       16697      4.49%     87.20% |       17900      4.82%     92.02% |       14024      3.78%     95.80% |       15620      4.20%    100.00% |           0      0.00%    100.00% |           0      0.00%    100.00% |           0      0.00%    100.00% |           0      0.00%    100.00% |           0      0.00%    100.00% |           0      0.00%    100.00% |           0      0.00%    100.00% |           0      0.00%    100.00% |           0      0.00%    100.00% |           0      0.00%    100.00% |           0      0.00%    100.00% |           0      0.00%    100.00% |           0      0.00%    100.00% |           0      0.00%    100.00% |           0      0.00%    100.00% |           0      0.00%    100.00% |           0      0.00%    100.00% |           0      0.00%    100.00% |           0      0.00%    100.00% |           0      0.00%    100.00% |           0      0.00%    100.00% |           0      0.00%    100.00%
system.ruby.SimicsNetworkPortInterface_Controller.MessageRecv::total       371472                      
system.ruby.SimicsNetworkPortInterface_Controller.A.MessageSend |       50902     13.70%     13.70% |      185736     50.00%     63.70% |       16876      4.54%     68.25% |       18029      4.85%     73.10% |       16706      4.50%     77.60% |       18982      5.11%     82.71% |       16697      4.49%     87.20% |       17900      4.82%     92.02% |       14024      3.78%     95.80% |       15620      4.20%    100.00% |           0      0.00%    100.00% |           0      0.00%    100.00% |           0      0.00%    100.00% |           0      0.00%    100.00% |           0      0.00%    100.00% |           0      0.00%    100.00% |           0      0.00%    100.00% |           0      0.00%    100.00% |           0      0.00%    100.00% |           0      0.00%    100.00% |           0      0.00%    100.00% |           0      0.00%    100.00% |           0      0.00%    100.00% |           0      0.00%    100.00% |           0      0.00%    100.00% |           0      0.00%    100.00% |           0      0.00%    100.00% |           0      0.00%    100.00% |           0      0.00%    100.00% |           0      0.00%    100.00% |           0      0.00%    100.00% |           0      0.00%    100.00%
system.ruby.SimicsNetworkPortInterface_Controller.A.MessageSend::total       371472                      
system.ruby.SimicsNetworkPortInterface_Controller.A.MessageRecv |       50902     13.70%     13.70% |      185736     50.00%     63.70% |       16876      4.54%     68.25% |       18029      4.85%     73.10% |       16706      4.50%     77.60% |       18982      5.11%     82.71% |       16697      4.49%     87.20% |       17900      4.82%     92.02% |       14024      3.78%     95.80% |       15620      4.20%    100.00% |           0      0.00%    100.00% |           0      0.00%    100.00% |           0      0.00%    100.00% |           0      0.00%    100.00% |           0      0.00%    100.00% |           0      0.00%    100.00% |           0      0.00%    100.00% |           0      0.00%    100.00% |           0      0.00%    100.00% |           0      0.00%    100.00% |           0      0.00%    100.00% |           0      0.00%    100.00% |           0      0.00%    100.00% |           0      0.00%    100.00% |           0      0.00%    100.00% |           0      0.00%    100.00% |           0      0.00%    100.00% |           0      0.00%    100.00% |           0      0.00%    100.00% |           0      0.00%    100.00% |           0      0.00%    100.00% |           0      0.00%    100.00%
system.ruby.SimicsNetworkPortInterface_Controller.A.MessageRecv::total       371472                      
system.switch_cpus.kern.inst.arm                    0                       # number of arm instructions executed
system.switch_cpus.kern.inst.quiesce                0                       # number of quiesce instructions executed

---------- End Simulation Statistics   ----------
