
---------- Begin Simulation Statistics ----------
sim_seconds                                  0.130703                       # Number of seconds simulated
sim_ticks                                130703223500                       # Number of ticks simulated
final_tick                               5306871302000                       # Number of ticks from beginning of simulation (restored from checkpoints and never reset)
sim_freq                                 1000000000000                       # Frequency of simulated ticks
host_inst_rate                                  33946                       # Simulator instruction rate (inst/s)
host_op_rate                                    58605                       # Simulator op (including micro ops) rate (op/s)
host_tick_rate                              103859514                       # Simulator tick rate (ticks/s)
host_mem_usage                                3853796                       # Number of bytes of host memory used
host_seconds                                  1258.46                       # Real time elapsed on the host
sim_insts                                    42720323                       # Number of instructions simulated
sim_ops                                      73752233                       # Number of ops (including micro ops) simulated
system.voltage_domain.voltage                       1                       # Voltage in Volts
system.clk_domain.clock                           500                       # Clock period in ticks
system.mem_ctrls0.bytes_read::ruby.dir_cntrl0     21452672                       # Number of bytes read from this memory
system.mem_ctrls0.bytes_read::total          21452672                       # Number of bytes read from this memory
system.mem_ctrls0.bytes_written::ruby.dir_cntrl0     13543872                       # Number of bytes written to this memory
system.mem_ctrls0.bytes_written::total       13543872                       # Number of bytes written to this memory
system.mem_ctrls0.num_reads::ruby.dir_cntrl0       335198                       # Number of read requests responded to by this memory
system.mem_ctrls0.num_reads::total             335198                       # Number of read requests responded to by this memory
system.mem_ctrls0.num_writes::ruby.dir_cntrl0       211623                       # Number of write requests responded to by this memory
system.mem_ctrls0.num_writes::total            211623                       # Number of write requests responded to by this memory
system.mem_ctrls0.bw_read::ruby.dir_cntrl0    164132693                       # Total read bandwidth from this memory (bytes/s)
system.mem_ctrls0.bw_read::total            164132693                       # Total read bandwidth from this memory (bytes/s)
system.mem_ctrls0.bw_write::ruby.dir_cntrl0    103623091                       # Write bandwidth from this memory (bytes/s)
system.mem_ctrls0.bw_write::total           103623091                       # Write bandwidth from this memory (bytes/s)
system.mem_ctrls0.bw_total::ruby.dir_cntrl0    267755783                       # Total bandwidth to/from this memory (bytes/s)
system.mem_ctrls0.bw_total::total           267755783                       # Total bandwidth to/from this memory (bytes/s)
system.mem_ctrls0.readReqs                     335198                       # Number of read requests accepted
system.mem_ctrls0.writeReqs                    211623                       # Number of write requests accepted
system.mem_ctrls0.readBursts                   335198                       # Number of DRAM read bursts, including those serviced by the write queue
system.mem_ctrls0.writeBursts                  211623                       # Number of DRAM write bursts, including those merged in the write queue
system.mem_ctrls0.bytesReadDRAM              21451456                       # Total number of bytes read from DRAM
system.mem_ctrls0.bytesReadWrQ                   1216                       # Total number of bytes read from write queue
system.mem_ctrls0.bytesWritten               13543616                       # Total number of bytes written to DRAM
system.mem_ctrls0.bytesReadSys               21452672                       # Total read bytes from the system interface side
system.mem_ctrls0.bytesWrittenSys            13543872                       # Total written bytes from the system interface side
system.mem_ctrls0.servicedByWrQ                    19                       # Number of DRAM read bursts serviced by the write queue
system.mem_ctrls0.mergedWrBursts                    0                       # Number of DRAM write bursts merged with an existing one
system.mem_ctrls0.neitherReadNorWriteReqs            0                       # Number of requests that are neither read nor write
system.mem_ctrls0.perBankRdBursts::0            20683                       # Per bank write bursts
system.mem_ctrls0.perBankRdBursts::1            21302                       # Per bank write bursts
system.mem_ctrls0.perBankRdBursts::2            20886                       # Per bank write bursts
system.mem_ctrls0.perBankRdBursts::3            21355                       # Per bank write bursts
system.mem_ctrls0.perBankRdBursts::4            20968                       # Per bank write bursts
system.mem_ctrls0.perBankRdBursts::5            21175                       # Per bank write bursts
system.mem_ctrls0.perBankRdBursts::6            21075                       # Per bank write bursts
system.mem_ctrls0.perBankRdBursts::7            21063                       # Per bank write bursts
system.mem_ctrls0.perBankRdBursts::8            20843                       # Per bank write bursts
system.mem_ctrls0.perBankRdBursts::9            21047                       # Per bank write bursts
system.mem_ctrls0.perBankRdBursts::10           20799                       # Per bank write bursts
system.mem_ctrls0.perBankRdBursts::11           21190                       # Per bank write bursts
system.mem_ctrls0.perBankRdBursts::12           20652                       # Per bank write bursts
system.mem_ctrls0.perBankRdBursts::13           20570                       # Per bank write bursts
system.mem_ctrls0.perBankRdBursts::14           20793                       # Per bank write bursts
system.mem_ctrls0.perBankRdBursts::15           20778                       # Per bank write bursts
system.mem_ctrls0.perBankWrBursts::0            13281                       # Per bank write bursts
system.mem_ctrls0.perBankWrBursts::1            13238                       # Per bank write bursts
system.mem_ctrls0.perBankWrBursts::2            13160                       # Per bank write bursts
system.mem_ctrls0.perBankWrBursts::3            13380                       # Per bank write bursts
system.mem_ctrls0.perBankWrBursts::4            13212                       # Per bank write bursts
system.mem_ctrls0.perBankWrBursts::5            13315                       # Per bank write bursts
system.mem_ctrls0.perBankWrBursts::6            13250                       # Per bank write bursts
system.mem_ctrls0.perBankWrBursts::7            13417                       # Per bank write bursts
system.mem_ctrls0.perBankWrBursts::8            13130                       # Per bank write bursts
system.mem_ctrls0.perBankWrBursts::9            13339                       # Per bank write bursts
system.mem_ctrls0.perBankWrBursts::10           13146                       # Per bank write bursts
system.mem_ctrls0.perBankWrBursts::11           13079                       # Per bank write bursts
system.mem_ctrls0.perBankWrBursts::12           13063                       # Per bank write bursts
system.mem_ctrls0.perBankWrBursts::13           13074                       # Per bank write bursts
system.mem_ctrls0.perBankWrBursts::14           13358                       # Per bank write bursts
system.mem_ctrls0.perBankWrBursts::15           13177                       # Per bank write bursts
system.mem_ctrls0.numRdRetry                    86270                       # Number of times read queue was full causing retry
system.mem_ctrls0.numWrRetry                     3134                       # Number of times write queue was full causing retry
system.mem_ctrls0.totGap                 130702677500                       # Total gap between requests
system.mem_ctrls0.readPktSize::0                    0                       # Read request sizes (log2)
system.mem_ctrls0.readPktSize::1                    0                       # Read request sizes (log2)
system.mem_ctrls0.readPktSize::2                    0                       # Read request sizes (log2)
system.mem_ctrls0.readPktSize::3                    0                       # Read request sizes (log2)
system.mem_ctrls0.readPktSize::4                    0                       # Read request sizes (log2)
system.mem_ctrls0.readPktSize::5                    0                       # Read request sizes (log2)
system.mem_ctrls0.readPktSize::6               335198                       # Read request sizes (log2)
system.mem_ctrls0.writePktSize::0                   0                       # Write request sizes (log2)
system.mem_ctrls0.writePktSize::1                   0                       # Write request sizes (log2)
system.mem_ctrls0.writePktSize::2                   0                       # Write request sizes (log2)
system.mem_ctrls0.writePktSize::3                   0                       # Write request sizes (log2)
system.mem_ctrls0.writePktSize::4                   0                       # Write request sizes (log2)
system.mem_ctrls0.writePktSize::5                   0                       # Write request sizes (log2)
system.mem_ctrls0.writePktSize::6              211623                       # Write request sizes (log2)
system.mem_ctrls0.rdQLenPdf::0                 175598                       # What read queue length does an incoming req see
system.mem_ctrls0.rdQLenPdf::1                   5018                       # What read queue length does an incoming req see
system.mem_ctrls0.rdQLenPdf::2                   2293                       # What read queue length does an incoming req see
system.mem_ctrls0.rdQLenPdf::3                    973                       # What read queue length does an incoming req see
system.mem_ctrls0.rdQLenPdf::4                   1155                       # What read queue length does an incoming req see
system.mem_ctrls0.rdQLenPdf::5                   1311                       # What read queue length does an incoming req see
system.mem_ctrls0.rdQLenPdf::6                   1434                       # What read queue length does an incoming req see
system.mem_ctrls0.rdQLenPdf::7                   1598                       # What read queue length does an incoming req see
system.mem_ctrls0.rdQLenPdf::8                   1704                       # What read queue length does an incoming req see
system.mem_ctrls0.rdQLenPdf::9                   1912                       # What read queue length does an incoming req see
system.mem_ctrls0.rdQLenPdf::10                  1901                       # What read queue length does an incoming req see
system.mem_ctrls0.rdQLenPdf::11                  2022                       # What read queue length does an incoming req see
system.mem_ctrls0.rdQLenPdf::12                  2051                       # What read queue length does an incoming req see
system.mem_ctrls0.rdQLenPdf::13                  2133                       # What read queue length does an incoming req see
system.mem_ctrls0.rdQLenPdf::14                  2177                       # What read queue length does an incoming req see
system.mem_ctrls0.rdQLenPdf::15                  2169                       # What read queue length does an incoming req see
system.mem_ctrls0.rdQLenPdf::16                  2184                       # What read queue length does an incoming req see
system.mem_ctrls0.rdQLenPdf::17                  2253                       # What read queue length does an incoming req see
system.mem_ctrls0.rdQLenPdf::18                  2314                       # What read queue length does an incoming req see
system.mem_ctrls0.rdQLenPdf::19                  2459                       # What read queue length does an incoming req see
system.mem_ctrls0.rdQLenPdf::20                  2506                       # What read queue length does an incoming req see
system.mem_ctrls0.rdQLenPdf::21                  2472                       # What read queue length does an incoming req see
system.mem_ctrls0.rdQLenPdf::22                  2616                       # What read queue length does an incoming req see
system.mem_ctrls0.rdQLenPdf::23                  2554                       # What read queue length does an incoming req see
system.mem_ctrls0.rdQLenPdf::24                  2629                       # What read queue length does an incoming req see
system.mem_ctrls0.rdQLenPdf::25                  2813                       # What read queue length does an incoming req see
system.mem_ctrls0.rdQLenPdf::26                  2855                       # What read queue length does an incoming req see
system.mem_ctrls0.rdQLenPdf::27                  2923                       # What read queue length does an incoming req see
system.mem_ctrls0.rdQLenPdf::28                  2935                       # What read queue length does an incoming req see
system.mem_ctrls0.rdQLenPdf::29                  3049                       # What read queue length does an incoming req see
system.mem_ctrls0.rdQLenPdf::30                  3126                       # What read queue length does an incoming req see
system.mem_ctrls0.rdQLenPdf::31                 90042                       # What read queue length does an incoming req see
system.mem_ctrls0.wrQLenPdf::0                  37557                       # What write queue length does an incoming req see
system.mem_ctrls0.wrQLenPdf::1                  38539                       # What write queue length does an incoming req see
system.mem_ctrls0.wrQLenPdf::2                  39079                       # What write queue length does an incoming req see
system.mem_ctrls0.wrQLenPdf::3                  39258                       # What write queue length does an incoming req see
system.mem_ctrls0.wrQLenPdf::4                  39097                       # What write queue length does an incoming req see
system.mem_ctrls0.wrQLenPdf::5                   5457                       # What write queue length does an incoming req see
system.mem_ctrls0.wrQLenPdf::6                   5903                       # What write queue length does an incoming req see
system.mem_ctrls0.wrQLenPdf::7                   6733                       # What write queue length does an incoming req see
system.mem_ctrls0.bytesPerActivate::samples       157214                       # Bytes accessed per row activation
system.mem_ctrls0.bytesPerActivate::mean   222.589032                       # Bytes accessed per row activation
system.mem_ctrls0.bytesPerActivate::gmean   164.926386                       # Bytes accessed per row activation
system.mem_ctrls0.bytesPerActivate::stdev   180.230696                       # Bytes accessed per row activation
system.mem_ctrls0.bytesPerActivate::0-127        53807     34.23%     34.23% # Bytes accessed per row activation
system.mem_ctrls0.bytesPerActivate::128-255        32661     20.77%     55.00% # Bytes accessed per row activation
system.mem_ctrls0.bytesPerActivate::256-383        54007     34.35%     89.35% # Bytes accessed per row activation
system.mem_ctrls0.bytesPerActivate::384-511         6263      3.98%     93.34% # Bytes accessed per row activation
system.mem_ctrls0.bytesPerActivate::512-639         4179      2.66%     95.99% # Bytes accessed per row activation
system.mem_ctrls0.bytesPerActivate::640-767         2233      1.42%     97.41% # Bytes accessed per row activation
system.mem_ctrls0.bytesPerActivate::768-895         1246      0.79%     98.21% # Bytes accessed per row activation
system.mem_ctrls0.bytesPerActivate::896-1023          903      0.57%     98.78% # Bytes accessed per row activation
system.mem_ctrls0.bytesPerActivate::1024-1151         1915      1.22%    100.00% # Bytes accessed per row activation
system.mem_ctrls0.bytesPerActivate::total       157214                       # Bytes accessed per row activation
system.mem_ctrls0.rdPerTurnAround::samples        37832                       # Reads before turning the bus around for writes
system.mem_ctrls0.rdPerTurnAround::mean      8.858770                       # Reads before turning the bus around for writes
system.mem_ctrls0.rdPerTurnAround::stdev    23.970666                       # Reads before turning the bus around for writes
system.mem_ctrls0.rdPerTurnAround::0-127        37816     99.96%     99.96% # Reads before turning the bus around for writes
system.mem_ctrls0.rdPerTurnAround::128-255           15      0.04%    100.00% # Reads before turning the bus around for writes
system.mem_ctrls0.rdPerTurnAround::3968-4095            1      0.00%    100.00% # Reads before turning the bus around for writes
system.mem_ctrls0.rdPerTurnAround::total        37832                       # Reads before turning the bus around for writes
system.mem_ctrls0.wrPerTurnAround::samples        37832                       # Writes before turning the bus around for reads
system.mem_ctrls0.wrPerTurnAround::mean      5.593651                       # Writes before turning the bus around for reads
system.mem_ctrls0.wrPerTurnAround::gmean     5.405680                       # Writes before turning the bus around for reads
system.mem_ctrls0.wrPerTurnAround::stdev     1.896911                       # Writes before turning the bus around for reads
system.mem_ctrls0.wrPerTurnAround::4-7          34438     91.03%     91.03% # Writes before turning the bus around for reads
system.mem_ctrls0.wrPerTurnAround::8-11          2276      6.02%     97.04% # Writes before turning the bus around for reads
system.mem_ctrls0.wrPerTurnAround::12-15          650      1.72%     98.76% # Writes before turning the bus around for reads
system.mem_ctrls0.wrPerTurnAround::16-19          468      1.24%    100.00% # Writes before turning the bus around for reads
system.mem_ctrls0.wrPerTurnAround::total        37832                       # Writes before turning the bus around for reads
system.mem_ctrls0.totQLat                 33270445106                       # Total ticks spent queuing
system.mem_ctrls0.totMemAccLat            39555051356                       # Total ticks spent from burst creation until serviced by the DRAM
system.mem_ctrls0.totBusLat                1675895000                       # Total ticks spent in databus transfers
system.mem_ctrls0.avgQLat                    99261.72                       # Average queueing delay per DRAM burst
system.mem_ctrls0.avgBusLat                   5000.00                       # Average bus latency per DRAM burst
system.mem_ctrls0.avgMemAccLat              118011.72                       # Average memory access latency per DRAM burst
system.mem_ctrls0.avgRdBW                      164.12                       # Average DRAM read bandwidth in MiByte/s
system.mem_ctrls0.avgWrBW                      103.62                       # Average achieved write bandwidth in MiByte/s
system.mem_ctrls0.avgRdBWSys                   164.13                       # Average system read bandwidth in MiByte/s
system.mem_ctrls0.avgWrBWSys                   103.62                       # Average system write bandwidth in MiByte/s
system.mem_ctrls0.peakBW                     12800.00                       # Theoretical peak bandwidth in MiByte/s
system.mem_ctrls0.busUtil                        2.09                       # Data bus utilization in percentage
system.mem_ctrls0.busUtilRead                    1.28                       # Data bus utilization in percentage for reads
system.mem_ctrls0.busUtilWrite                   0.81                       # Data bus utilization in percentage for writes
system.mem_ctrls0.avgRdQLen                      1.26                       # Average read queue length when enqueuing
system.mem_ctrls0.avgWrQLen                      2.96                       # Average write queue length when enqueuing
system.mem_ctrls0.readRowHits                  251642                       # Number of row buffer hits during reads
system.mem_ctrls0.writeRowHits                 137933                       # Number of row buffer hits during writes
system.mem_ctrls0.readRowHitRate                75.08                       # Row buffer hit rate for reads
system.mem_ctrls0.writeRowHitRate               65.18                       # Row buffer hit rate for writes
system.mem_ctrls0.avgGap                    239022.78                       # Average gap between requests
system.mem_ctrls0.pageHitRate                   71.25                       # Row buffer hit rate, read and write combined
system.mem_ctrls0.memoryStateTime::IDLE   28041392250                       # Time in different power states
system.mem_ctrls0.memoryStateTime::REF     4364360000                       # Time in different power states
system.mem_ctrls0.memoryStateTime::PRE_PDN            0                       # Time in different power states
system.mem_ctrls0.memoryStateTime::ACT    98294514000                       # Time in different power states
system.mem_ctrls0.memoryStateTime::ACT_PDN            0                       # Time in different power states
system.mem_ctrls0.actEnergy::0              601133400                       # Energy for activate commands per rank (pJ)
system.mem_ctrls0.actEnergy::1              587396880                       # Energy for activate commands per rank (pJ)
system.mem_ctrls0.preEnergy::0              327999375                       # Energy for precharge commands per rank (pJ)
system.mem_ctrls0.preEnergy::1              320504250                       # Energy for precharge commands per rank (pJ)
system.mem_ctrls0.readEnergy::0            1314284400                       # Energy for read commands per rank (pJ)
system.mem_ctrls0.readEnergy::1            1299971400                       # Energy for read commands per rank (pJ)
system.mem_ctrls0.writeEnergy::0            688519440                       # Energy for write commands per rank (pJ)
system.mem_ctrls0.writeEnergy::1            682771680                       # Energy for write commands per rank (pJ)
system.mem_ctrls0.refreshEnergy::0         8536688160                       # Energy for refresh commands per rank (pJ)
system.mem_ctrls0.refreshEnergy::1         8536688160                       # Energy for refresh commands per rank (pJ)
system.mem_ctrls0.actBackEnergy::0        49704158745                       # Energy for active background per rank (pJ)
system.mem_ctrls0.actBackEnergy::1        49271014035                       # Energy for active background per rank (pJ)
system.mem_ctrls0.preBackEnergy::0        34820012250                       # Energy for precharge background per rank (pJ)
system.mem_ctrls0.preBackEnergy::1        35199963750                       # Energy for precharge background per rank (pJ)
system.mem_ctrls0.totalEnergy::0          95992795770                       # Total energy per rank (pJ)
system.mem_ctrls0.totalEnergy::1          95898310155                       # Total energy per rank (pJ)
system.mem_ctrls0.averagePower::0          734.449964                       # Core power per rank (mW)
system.mem_ctrls0.averagePower::1          733.727046                       # Core power per rank (mW)
system.mem_ctrls1.bytes_read::ruby.dir_cntrl1     20798016                       # Number of bytes read from this memory
system.mem_ctrls1.bytes_read::total          20798016                       # Number of bytes read from this memory
system.mem_ctrls1.bytes_written::ruby.dir_cntrl1     12916800                       # Number of bytes written to this memory
system.mem_ctrls1.bytes_written::total       12916800                       # Number of bytes written to this memory
system.mem_ctrls1.num_reads::ruby.dir_cntrl1       324969                       # Number of read requests responded to by this memory
system.mem_ctrls1.num_reads::total             324969                       # Number of read requests responded to by this memory
system.mem_ctrls1.num_writes::ruby.dir_cntrl1       201825                       # Number of write requests responded to by this memory
system.mem_ctrls1.num_writes::total            201825                       # Number of write requests responded to by this memory
system.mem_ctrls1.bw_read::ruby.dir_cntrl1    159123971                       # Total read bandwidth from this memory (bytes/s)
system.mem_ctrls1.bw_read::total            159123971                       # Total read bandwidth from this memory (bytes/s)
system.mem_ctrls1.bw_write::ruby.dir_cntrl1     98825413                       # Write bandwidth from this memory (bytes/s)
system.mem_ctrls1.bw_write::total            98825413                       # Write bandwidth from this memory (bytes/s)
system.mem_ctrls1.bw_total::ruby.dir_cntrl1    257949384                       # Total bandwidth to/from this memory (bytes/s)
system.mem_ctrls1.bw_total::total           257949384                       # Total bandwidth to/from this memory (bytes/s)
system.mem_ctrls1.readReqs                     324969                       # Number of read requests accepted
system.mem_ctrls1.writeReqs                    201825                       # Number of write requests accepted
system.mem_ctrls1.readBursts                   324969                       # Number of DRAM read bursts, including those serviced by the write queue
system.mem_ctrls1.writeBursts                  201825                       # Number of DRAM write bursts, including those merged in the write queue
system.mem_ctrls1.bytesReadDRAM              20796864                       # Total number of bytes read from DRAM
system.mem_ctrls1.bytesReadWrQ                   1152                       # Total number of bytes read from write queue
system.mem_ctrls1.bytesWritten               12916800                       # Total number of bytes written to DRAM
system.mem_ctrls1.bytesReadSys               20798016                       # Total read bytes from the system interface side
system.mem_ctrls1.bytesWrittenSys            12916800                       # Total written bytes from the system interface side
system.mem_ctrls1.servicedByWrQ                    18                       # Number of DRAM read bursts serviced by the write queue
system.mem_ctrls1.mergedWrBursts                    0                       # Number of DRAM write bursts merged with an existing one
system.mem_ctrls1.neitherReadNorWriteReqs            0                       # Number of requests that are neither read nor write
system.mem_ctrls1.perBankRdBursts::0            20059                       # Per bank write bursts
system.mem_ctrls1.perBankRdBursts::1            20698                       # Per bank write bursts
system.mem_ctrls1.perBankRdBursts::2            20233                       # Per bank write bursts
system.mem_ctrls1.perBankRdBursts::3            20683                       # Per bank write bursts
system.mem_ctrls1.perBankRdBursts::4            20372                       # Per bank write bursts
system.mem_ctrls1.perBankRdBursts::5            20535                       # Per bank write bursts
system.mem_ctrls1.perBankRdBursts::6            20439                       # Per bank write bursts
system.mem_ctrls1.perBankRdBursts::7            20516                       # Per bank write bursts
system.mem_ctrls1.perBankRdBursts::8            20188                       # Per bank write bursts
system.mem_ctrls1.perBankRdBursts::9            20382                       # Per bank write bursts
system.mem_ctrls1.perBankRdBursts::10           20148                       # Per bank write bursts
system.mem_ctrls1.perBankRdBursts::11           20570                       # Per bank write bursts
system.mem_ctrls1.perBankRdBursts::12           20015                       # Per bank write bursts
system.mem_ctrls1.perBankRdBursts::13           19893                       # Per bank write bursts
system.mem_ctrls1.perBankRdBursts::14           20087                       # Per bank write bursts
system.mem_ctrls1.perBankRdBursts::15           20133                       # Per bank write bursts
system.mem_ctrls1.perBankWrBursts::0            12669                       # Per bank write bursts
system.mem_ctrls1.perBankWrBursts::1            12645                       # Per bank write bursts
system.mem_ctrls1.perBankWrBursts::2            12549                       # Per bank write bursts
system.mem_ctrls1.perBankWrBursts::3            12771                       # Per bank write bursts
system.mem_ctrls1.perBankWrBursts::4            12611                       # Per bank write bursts
system.mem_ctrls1.perBankWrBursts::5            12718                       # Per bank write bursts
system.mem_ctrls1.perBankWrBursts::6            12630                       # Per bank write bursts
system.mem_ctrls1.perBankWrBursts::7            12795                       # Per bank write bursts
system.mem_ctrls1.perBankWrBursts::8            12514                       # Per bank write bursts
system.mem_ctrls1.perBankWrBursts::9            12715                       # Per bank write bursts
system.mem_ctrls1.perBankWrBursts::10           12540                       # Per bank write bursts
system.mem_ctrls1.perBankWrBursts::11           12469                       # Per bank write bursts
system.mem_ctrls1.perBankWrBursts::12           12461                       # Per bank write bursts
system.mem_ctrls1.perBankWrBursts::13           12461                       # Per bank write bursts
system.mem_ctrls1.perBankWrBursts::14           12703                       # Per bank write bursts
system.mem_ctrls1.perBankWrBursts::15           12574                       # Per bank write bursts
system.mem_ctrls1.numRdRetry                    52129                       # Number of times read queue was full causing retry
system.mem_ctrls1.numWrRetry                     2695                       # Number of times write queue was full causing retry
system.mem_ctrls1.totGap                 130702399500                       # Total gap between requests
system.mem_ctrls1.readPktSize::0                    0                       # Read request sizes (log2)
system.mem_ctrls1.readPktSize::1                    0                       # Read request sizes (log2)
system.mem_ctrls1.readPktSize::2                    0                       # Read request sizes (log2)
system.mem_ctrls1.readPktSize::3                    0                       # Read request sizes (log2)
system.mem_ctrls1.readPktSize::4                    0                       # Read request sizes (log2)
system.mem_ctrls1.readPktSize::5                    0                       # Read request sizes (log2)
system.mem_ctrls1.readPktSize::6               324969                       # Read request sizes (log2)
system.mem_ctrls1.writePktSize::0                   0                       # Write request sizes (log2)
system.mem_ctrls1.writePktSize::1                   0                       # Write request sizes (log2)
system.mem_ctrls1.writePktSize::2                   0                       # Write request sizes (log2)
system.mem_ctrls1.writePktSize::3                   0                       # Write request sizes (log2)
system.mem_ctrls1.writePktSize::4                   0                       # Write request sizes (log2)
system.mem_ctrls1.writePktSize::5                   0                       # Write request sizes (log2)
system.mem_ctrls1.writePktSize::6              201825                       # Write request sizes (log2)
system.mem_ctrls1.rdQLenPdf::0                 170984                       # What read queue length does an incoming req see
system.mem_ctrls1.rdQLenPdf::1                   1661                       # What read queue length does an incoming req see
system.mem_ctrls1.rdQLenPdf::2                   1266                       # What read queue length does an incoming req see
system.mem_ctrls1.rdQLenPdf::3                   1475                       # What read queue length does an incoming req see
system.mem_ctrls1.rdQLenPdf::4                   1655                       # What read queue length does an incoming req see
system.mem_ctrls1.rdQLenPdf::5                   1882                       # What read queue length does an incoming req see
system.mem_ctrls1.rdQLenPdf::6                   2182                       # What read queue length does an incoming req see
system.mem_ctrls1.rdQLenPdf::7                   2347                       # What read queue length does an incoming req see
system.mem_ctrls1.rdQLenPdf::8                   2625                       # What read queue length does an incoming req see
system.mem_ctrls1.rdQLenPdf::9                   2772                       # What read queue length does an incoming req see
system.mem_ctrls1.rdQLenPdf::10                  3000                       # What read queue length does an incoming req see
system.mem_ctrls1.rdQLenPdf::11                  3129                       # What read queue length does an incoming req see
system.mem_ctrls1.rdQLenPdf::12                  3291                       # What read queue length does an incoming req see
system.mem_ctrls1.rdQLenPdf::13                  3447                       # What read queue length does an incoming req see
system.mem_ctrls1.rdQLenPdf::14                  3508                       # What read queue length does an incoming req see
system.mem_ctrls1.rdQLenPdf::15                  3635                       # What read queue length does an incoming req see
system.mem_ctrls1.rdQLenPdf::16                  3641                       # What read queue length does an incoming req see
system.mem_ctrls1.rdQLenPdf::17                  3792                       # What read queue length does an incoming req see
system.mem_ctrls1.rdQLenPdf::18                  3822                       # What read queue length does an incoming req see
system.mem_ctrls1.rdQLenPdf::19                  3786                       # What read queue length does an incoming req see
system.mem_ctrls1.rdQLenPdf::20                  3821                       # What read queue length does an incoming req see
system.mem_ctrls1.rdQLenPdf::21                  3942                       # What read queue length does an incoming req see
system.mem_ctrls1.rdQLenPdf::22                  3924                       # What read queue length does an incoming req see
system.mem_ctrls1.rdQLenPdf::23                  3861                       # What read queue length does an incoming req see
system.mem_ctrls1.rdQLenPdf::24                  3975                       # What read queue length does an incoming req see
system.mem_ctrls1.rdQLenPdf::25                  4068                       # What read queue length does an incoming req see
system.mem_ctrls1.rdQLenPdf::26                  4153                       # What read queue length does an incoming req see
system.mem_ctrls1.rdQLenPdf::27                  4054                       # What read queue length does an incoming req see
system.mem_ctrls1.rdQLenPdf::28                  4129                       # What read queue length does an incoming req see
system.mem_ctrls1.rdQLenPdf::29                  4228                       # What read queue length does an incoming req see
system.mem_ctrls1.rdQLenPdf::30                  4226                       # What read queue length does an incoming req see
system.mem_ctrls1.rdQLenPdf::31                 56670                       # What read queue length does an incoming req see
system.mem_ctrls1.wrQLenPdf::0                  35798                       # What write queue length does an incoming req see
system.mem_ctrls1.wrQLenPdf::1                  36810                       # What write queue length does an incoming req see
system.mem_ctrls1.wrQLenPdf::2                  37149                       # What write queue length does an incoming req see
system.mem_ctrls1.wrQLenPdf::3                  37461                       # What write queue length does an incoming req see
system.mem_ctrls1.wrQLenPdf::4                  37524                       # What write queue length does an incoming req see
system.mem_ctrls1.wrQLenPdf::5                   5324                       # What write queue length does an incoming req see
system.mem_ctrls1.wrQLenPdf::6                   5854                       # What write queue length does an incoming req see
system.mem_ctrls1.wrQLenPdf::7                   5905                       # What write queue length does an incoming req see
system.mem_ctrls1.bytesPerActivate::samples       131410                       # Bytes accessed per row activation
system.mem_ctrls1.bytesPerActivate::mean   256.546929                       # Bytes accessed per row activation
system.mem_ctrls1.bytesPerActivate::gmean   200.173656                       # Bytes accessed per row activation
system.mem_ctrls1.bytesPerActivate::stdev   185.629867                       # Bytes accessed per row activation
system.mem_ctrls1.bytesPerActivate::0-127        27611     21.01%     21.01% # Bytes accessed per row activation
system.mem_ctrls1.bytesPerActivate::128-255        32276     24.56%     45.57% # Bytes accessed per row activation
system.mem_ctrls1.bytesPerActivate::256-383        54049     41.13%     86.70% # Bytes accessed per row activation
system.mem_ctrls1.bytesPerActivate::384-511         6222      4.73%     91.44% # Bytes accessed per row activation
system.mem_ctrls1.bytesPerActivate::512-639         4519      3.44%     94.88% # Bytes accessed per row activation
system.mem_ctrls1.bytesPerActivate::640-767         2230      1.70%     96.57% # Bytes accessed per row activation
system.mem_ctrls1.bytesPerActivate::768-895         1270      0.97%     97.54% # Bytes accessed per row activation
system.mem_ctrls1.bytesPerActivate::896-1023          972      0.74%     98.28% # Bytes accessed per row activation
system.mem_ctrls1.bytesPerActivate::1024-1151         2261      1.72%    100.00% # Bytes accessed per row activation
system.mem_ctrls1.bytesPerActivate::total       131410                       # Bytes accessed per row activation
system.mem_ctrls1.rdPerTurnAround::samples        36106                       # Reads before turning the bus around for writes
system.mem_ctrls1.rdPerTurnAround::mean      8.999889                       # Reads before turning the bus around for writes
system.mem_ctrls1.rdPerTurnAround::stdev    21.181026                       # Reads before turning the bus around for writes
system.mem_ctrls1.rdPerTurnAround::0-127        36071     99.90%     99.90% # Reads before turning the bus around for writes
system.mem_ctrls1.rdPerTurnAround::128-255           33      0.09%     99.99% # Reads before turning the bus around for writes
system.mem_ctrls1.rdPerTurnAround::1152-1279            1      0.00%    100.00% # Reads before turning the bus around for writes
system.mem_ctrls1.rdPerTurnAround::2816-2943            1      0.00%    100.00% # Reads before turning the bus around for writes
system.mem_ctrls1.rdPerTurnAround::total        36106                       # Reads before turning the bus around for writes
system.mem_ctrls1.wrPerTurnAround::samples        36106                       # Writes before turning the bus around for reads
system.mem_ctrls1.wrPerTurnAround::mean      5.589791                       # Writes before turning the bus around for reads
system.mem_ctrls1.wrPerTurnAround::gmean     5.395152                       # Writes before turning the bus around for reads
system.mem_ctrls1.wrPerTurnAround::stdev     1.937990                       # Writes before turning the bus around for reads
system.mem_ctrls1.wrPerTurnAround::4-7          32853     90.99%     90.99% # Writes before turning the bus around for reads
system.mem_ctrls1.wrPerTurnAround::8-11          2066      5.72%     96.71% # Writes before turning the bus around for reads
system.mem_ctrls1.wrPerTurnAround::12-15          726      2.01%     98.72% # Writes before turning the bus around for reads
system.mem_ctrls1.wrPerTurnAround::16-19          461      1.28%    100.00% # Writes before turning the bus around for reads
system.mem_ctrls1.wrPerTurnAround::total        36106                       # Writes before turning the bus around for reads
system.mem_ctrls1.totQLat                 28819821741                       # Total ticks spent queuing
system.mem_ctrls1.totMemAccLat            34912652991                       # Total ticks spent from burst creation until serviced by the DRAM
system.mem_ctrls1.totBusLat                1624755000                       # Total ticks spent in databus transfers
system.mem_ctrls1.avgQLat                    88689.75                       # Average queueing delay per DRAM burst
system.mem_ctrls1.avgBusLat                   5000.00                       # Average bus latency per DRAM burst
system.mem_ctrls1.avgMemAccLat              107439.75                       # Average memory access latency per DRAM burst
system.mem_ctrls1.avgRdBW                      159.12                       # Average DRAM read bandwidth in MiByte/s
system.mem_ctrls1.avgWrBW                       98.83                       # Average achieved write bandwidth in MiByte/s
system.mem_ctrls1.avgRdBWSys                   159.12                       # Average system read bandwidth in MiByte/s
system.mem_ctrls1.avgWrBWSys                    98.83                       # Average system write bandwidth in MiByte/s
system.mem_ctrls1.peakBW                     12800.00                       # Theoretical peak bandwidth in MiByte/s
system.mem_ctrls1.busUtil                        2.02                       # Data bus utilization in percentage
system.mem_ctrls1.busUtilRead                    1.24                       # Data bus utilization in percentage for reads
system.mem_ctrls1.busUtilWrite                   0.77                       # Data bus utilization in percentage for writes
system.mem_ctrls1.avgRdQLen                      1.23                       # Average read queue length when enqueuing
system.mem_ctrls1.avgWrQLen                      2.98                       # Average write queue length when enqueuing
system.mem_ctrls1.readRowHits                  251701                       # Number of row buffer hits during reads
system.mem_ctrls1.writeRowHits                 143659                       # Number of row buffer hits during writes
system.mem_ctrls1.readRowHitRate                77.46                       # Row buffer hit rate for reads
system.mem_ctrls1.writeRowHitRate               71.18                       # Row buffer hit rate for writes
system.mem_ctrls1.avgGap                    248109.13                       # Average gap between requests
system.mem_ctrls1.pageHitRate                   75.05                       # Row buffer hit rate, read and write combined
system.mem_ctrls1.memoryStateTime::IDLE   28549334750                       # Time in different power states
system.mem_ctrls1.memoryStateTime::REF     4364360000                       # Time in different power states
system.mem_ctrls1.memoryStateTime::PRE_PDN            0                       # Time in different power states
system.mem_ctrls1.memoryStateTime::ACT    97787058250                       # Time in different power states
system.mem_ctrls1.memoryStateTime::ACT_PDN            0                       # Time in different power states
system.mem_ctrls1.actEnergy::0              503677440                       # Energy for activate commands per rank (pJ)
system.mem_ctrls1.actEnergy::1              489759480                       # Energy for activate commands per rank (pJ)
system.mem_ctrls1.preEnergy::0              274824000                       # Energy for precharge commands per rank (pJ)
system.mem_ctrls1.preEnergy::1              267229875                       # Energy for precharge commands per rank (pJ)
system.mem_ctrls1.readEnergy::0            1275526200                       # Energy for read commands per rank (pJ)
system.mem_ctrls1.readEnergy::1            1258998000                       # Energy for read commands per rank (pJ)
system.mem_ctrls1.writeEnergy::0            656961840                       # Energy for write commands per rank (pJ)
system.mem_ctrls1.writeEnergy::1            650831760                       # Energy for write commands per rank (pJ)
system.mem_ctrls1.refreshEnergy::0         8536688160                       # Energy for refresh commands per rank (pJ)
system.mem_ctrls1.refreshEnergy::1         8536688160                       # Energy for refresh commands per rank (pJ)
system.mem_ctrls1.actBackEnergy::0        49143326625                       # Energy for active background per rank (pJ)
system.mem_ctrls1.actBackEnergy::1        48203047215                       # Energy for active background per rank (pJ)
system.mem_ctrls1.preBackEnergy::0        35311970250                       # Energy for precharge background per rank (pJ)
system.mem_ctrls1.preBackEnergy::1        36136776750                       # Energy for precharge background per rank (pJ)
system.mem_ctrls1.totalEnergy::0          95702974515                       # Total energy per rank (pJ)
system.mem_ctrls1.totalEnergy::1          95543331240                       # Total energy per rank (pJ)
system.mem_ctrls1.averagePower::0          732.232514                       # Core power per rank (mW)
system.mem_ctrls1.averagePower::1          731.011069                       # Core power per rank (mW)
system.mem_ctrls2.bytes_read::ruby.dir_cntrl2     20796480                       # Number of bytes read from this memory
system.mem_ctrls2.bytes_read::total          20796480                       # Number of bytes read from this memory
system.mem_ctrls2.bytes_written::ruby.dir_cntrl2     12917504                       # Number of bytes written to this memory
system.mem_ctrls2.bytes_written::total       12917504                       # Number of bytes written to this memory
system.mem_ctrls2.num_reads::ruby.dir_cntrl2       324945                       # Number of read requests responded to by this memory
system.mem_ctrls2.num_reads::total             324945                       # Number of read requests responded to by this memory
system.mem_ctrls2.num_writes::ruby.dir_cntrl2       201836                       # Number of write requests responded to by this memory
system.mem_ctrls2.num_writes::total            201836                       # Number of write requests responded to by this memory
system.mem_ctrls2.bw_read::ruby.dir_cntrl2    159112220                       # Total read bandwidth from this memory (bytes/s)
system.mem_ctrls2.bw_read::total            159112220                       # Total read bandwidth from this memory (bytes/s)
system.mem_ctrls2.bw_write::ruby.dir_cntrl2     98830799                       # Write bandwidth from this memory (bytes/s)
system.mem_ctrls2.bw_write::total            98830799                       # Write bandwidth from this memory (bytes/s)
system.mem_ctrls2.bw_total::ruby.dir_cntrl2    257943019                       # Total bandwidth to/from this memory (bytes/s)
system.mem_ctrls2.bw_total::total           257943019                       # Total bandwidth to/from this memory (bytes/s)
system.mem_ctrls2.readReqs                     324945                       # Number of read requests accepted
system.mem_ctrls2.writeReqs                    201836                       # Number of write requests accepted
system.mem_ctrls2.readBursts                   324945                       # Number of DRAM read bursts, including those serviced by the write queue
system.mem_ctrls2.writeBursts                  201836                       # Number of DRAM write bursts, including those merged in the write queue
system.mem_ctrls2.bytesReadDRAM              20795520                       # Total number of bytes read from DRAM
system.mem_ctrls2.bytesReadWrQ                    960                       # Total number of bytes read from write queue
system.mem_ctrls2.bytesWritten               12917376                       # Total number of bytes written to DRAM
system.mem_ctrls2.bytesReadSys               20796480                       # Total read bytes from the system interface side
system.mem_ctrls2.bytesWrittenSys            12917504                       # Total written bytes from the system interface side
system.mem_ctrls2.servicedByWrQ                    15                       # Number of DRAM read bursts serviced by the write queue
system.mem_ctrls2.mergedWrBursts                    0                       # Number of DRAM write bursts merged with an existing one
system.mem_ctrls2.neitherReadNorWriteReqs            0                       # Number of requests that are neither read nor write
system.mem_ctrls2.perBankRdBursts::0            20056                       # Per bank write bursts
system.mem_ctrls2.perBankRdBursts::1            20678                       # Per bank write bursts
system.mem_ctrls2.perBankRdBursts::2            20244                       # Per bank write bursts
system.mem_ctrls2.perBankRdBursts::3            20732                       # Per bank write bursts
system.mem_ctrls2.perBankRdBursts::4            20377                       # Per bank write bursts
system.mem_ctrls2.perBankRdBursts::5            20527                       # Per bank write bursts
system.mem_ctrls2.perBankRdBursts::6            20414                       # Per bank write bursts
system.mem_ctrls2.perBankRdBursts::7            20489                       # Per bank write bursts
system.mem_ctrls2.perBankRdBursts::8            20154                       # Per bank write bursts
system.mem_ctrls2.perBankRdBursts::9            20392                       # Per bank write bursts
system.mem_ctrls2.perBankRdBursts::10           20157                       # Per bank write bursts
system.mem_ctrls2.perBankRdBursts::11           20587                       # Per bank write bursts
system.mem_ctrls2.perBankRdBursts::12           20032                       # Per bank write bursts
system.mem_ctrls2.perBankRdBursts::13           19850                       # Per bank write bursts
system.mem_ctrls2.perBankRdBursts::14           20072                       # Per bank write bursts
system.mem_ctrls2.perBankRdBursts::15           20169                       # Per bank write bursts
system.mem_ctrls2.perBankWrBursts::0            12663                       # Per bank write bursts
system.mem_ctrls2.perBankWrBursts::1            12643                       # Per bank write bursts
system.mem_ctrls2.perBankWrBursts::2            12545                       # Per bank write bursts
system.mem_ctrls2.perBankWrBursts::3            12779                       # Per bank write bursts
system.mem_ctrls2.perBankWrBursts::4            12610                       # Per bank write bursts
system.mem_ctrls2.perBankWrBursts::5            12702                       # Per bank write bursts
system.mem_ctrls2.perBankWrBursts::6            12638                       # Per bank write bursts
system.mem_ctrls2.perBankWrBursts::7            12794                       # Per bank write bursts
system.mem_ctrls2.perBankWrBursts::8            12500                       # Per bank write bursts
system.mem_ctrls2.perBankWrBursts::9            12721                       # Per bank write bursts
system.mem_ctrls2.perBankWrBursts::10           12540                       # Per bank write bursts
system.mem_ctrls2.perBankWrBursts::11           12481                       # Per bank write bursts
system.mem_ctrls2.perBankWrBursts::12           12468                       # Per bank write bursts
system.mem_ctrls2.perBankWrBursts::13           12455                       # Per bank write bursts
system.mem_ctrls2.perBankWrBursts::14           12708                       # Per bank write bursts
system.mem_ctrls2.perBankWrBursts::15           12587                       # Per bank write bursts
system.mem_ctrls2.numRdRetry                    49713                       # Number of times read queue was full causing retry
system.mem_ctrls2.numWrRetry                     2699                       # Number of times write queue was full causing retry
system.mem_ctrls2.totGap                 130703133500                       # Total gap between requests
system.mem_ctrls2.readPktSize::0                    0                       # Read request sizes (log2)
system.mem_ctrls2.readPktSize::1                    0                       # Read request sizes (log2)
system.mem_ctrls2.readPktSize::2                    0                       # Read request sizes (log2)
system.mem_ctrls2.readPktSize::3                    0                       # Read request sizes (log2)
system.mem_ctrls2.readPktSize::4                    0                       # Read request sizes (log2)
system.mem_ctrls2.readPktSize::5                    0                       # Read request sizes (log2)
system.mem_ctrls2.readPktSize::6               324945                       # Read request sizes (log2)
system.mem_ctrls2.writePktSize::0                   0                       # Write request sizes (log2)
system.mem_ctrls2.writePktSize::1                   0                       # Write request sizes (log2)
system.mem_ctrls2.writePktSize::2                   0                       # Write request sizes (log2)
system.mem_ctrls2.writePktSize::3                   0                       # Write request sizes (log2)
system.mem_ctrls2.writePktSize::4                   0                       # Write request sizes (log2)
system.mem_ctrls2.writePktSize::5                   0                       # Write request sizes (log2)
system.mem_ctrls2.writePktSize::6              201836                       # Write request sizes (log2)
system.mem_ctrls2.rdQLenPdf::0                 171218                       # What read queue length does an incoming req see
system.mem_ctrls2.rdQLenPdf::1                   1530                       # What read queue length does an incoming req see
system.mem_ctrls2.rdQLenPdf::2                   1431                       # What read queue length does an incoming req see
system.mem_ctrls2.rdQLenPdf::3                   1573                       # What read queue length does an incoming req see
system.mem_ctrls2.rdQLenPdf::4                   1711                       # What read queue length does an incoming req see
system.mem_ctrls2.rdQLenPdf::5                   2028                       # What read queue length does an incoming req see
system.mem_ctrls2.rdQLenPdf::6                   2238                       # What read queue length does an incoming req see
system.mem_ctrls2.rdQLenPdf::7                   2386                       # What read queue length does an incoming req see
system.mem_ctrls2.rdQLenPdf::8                   2709                       # What read queue length does an incoming req see
system.mem_ctrls2.rdQLenPdf::9                   2810                       # What read queue length does an incoming req see
system.mem_ctrls2.rdQLenPdf::10                  2979                       # What read queue length does an incoming req see
system.mem_ctrls2.rdQLenPdf::11                  3228                       # What read queue length does an incoming req see
system.mem_ctrls2.rdQLenPdf::12                  3193                       # What read queue length does an incoming req see
system.mem_ctrls2.rdQLenPdf::13                  3290                       # What read queue length does an incoming req see
system.mem_ctrls2.rdQLenPdf::14                  3394                       # What read queue length does an incoming req see
system.mem_ctrls2.rdQLenPdf::15                  3584                       # What read queue length does an incoming req see
system.mem_ctrls2.rdQLenPdf::16                  3815                       # What read queue length does an incoming req see
system.mem_ctrls2.rdQLenPdf::17                  3984                       # What read queue length does an incoming req see
system.mem_ctrls2.rdQLenPdf::18                  4013                       # What read queue length does an incoming req see
system.mem_ctrls2.rdQLenPdf::19                  4056                       # What read queue length does an incoming req see
system.mem_ctrls2.rdQLenPdf::20                  4065                       # What read queue length does an incoming req see
system.mem_ctrls2.rdQLenPdf::21                  4094                       # What read queue length does an incoming req see
system.mem_ctrls2.rdQLenPdf::22                  4095                       # What read queue length does an incoming req see
system.mem_ctrls2.rdQLenPdf::23                  4302                       # What read queue length does an incoming req see
system.mem_ctrls2.rdQLenPdf::24                  4241                       # What read queue length does an incoming req see
system.mem_ctrls2.rdQLenPdf::25                  4237                       # What read queue length does an incoming req see
system.mem_ctrls2.rdQLenPdf::26                  4130                       # What read queue length does an incoming req see
system.mem_ctrls2.rdQLenPdf::27                  4182                       # What read queue length does an incoming req see
system.mem_ctrls2.rdQLenPdf::28                  4066                       # What read queue length does an incoming req see
system.mem_ctrls2.rdQLenPdf::29                  4179                       # What read queue length does an incoming req see
system.mem_ctrls2.rdQLenPdf::30                  4177                       # What read queue length does an incoming req see
system.mem_ctrls2.rdQLenPdf::31                 53992                       # What read queue length does an incoming req see
system.mem_ctrls2.wrQLenPdf::0                  35800                       # What write queue length does an incoming req see
system.mem_ctrls2.wrQLenPdf::1                  36792                       # What write queue length does an incoming req see
system.mem_ctrls2.wrQLenPdf::2                  37103                       # What write queue length does an incoming req see
system.mem_ctrls2.wrQLenPdf::3                  37331                       # What write queue length does an incoming req see
system.mem_ctrls2.wrQLenPdf::4                  37459                       # What write queue length does an incoming req see
system.mem_ctrls2.wrQLenPdf::5                   5393                       # What write queue length does an incoming req see
system.mem_ctrls2.wrQLenPdf::6                   5818                       # What write queue length does an incoming req see
system.mem_ctrls2.wrQLenPdf::7                   6140                       # What write queue length does an incoming req see
system.mem_ctrls2.bytesPerActivate::samples       130739                       # Bytes accessed per row activation
system.mem_ctrls2.bytesPerActivate::mean   257.859216                       # Bytes accessed per row activation
system.mem_ctrls2.bytesPerActivate::gmean   201.359969                       # Bytes accessed per row activation
system.mem_ctrls2.bytesPerActivate::stdev   185.781298                       # Bytes accessed per row activation
system.mem_ctrls2.bytesPerActivate::0-127        27402     20.96%     20.96% # Bytes accessed per row activation
system.mem_ctrls2.bytesPerActivate::128-255        31107     23.79%     44.75% # Bytes accessed per row activation
system.mem_ctrls2.bytesPerActivate::256-383        54675     41.82%     86.57% # Bytes accessed per row activation
system.mem_ctrls2.bytesPerActivate::384-511         6311      4.83%     91.40% # Bytes accessed per row activation
system.mem_ctrls2.bytesPerActivate::512-639         4525      3.46%     94.86% # Bytes accessed per row activation
system.mem_ctrls2.bytesPerActivate::640-767         2197      1.68%     96.54% # Bytes accessed per row activation
system.mem_ctrls2.bytesPerActivate::768-895         1275      0.98%     97.52% # Bytes accessed per row activation
system.mem_ctrls2.bytesPerActivate::896-1023          943      0.72%     98.24% # Bytes accessed per row activation
system.mem_ctrls2.bytesPerActivate::1024-1151         2304      1.76%    100.00% # Bytes accessed per row activation
system.mem_ctrls2.bytesPerActivate::total       130739                       # Bytes accessed per row activation
system.mem_ctrls2.rdPerTurnAround::samples        36099                       # Reads before turning the bus around for writes
system.mem_ctrls2.rdPerTurnAround::mean      9.000332                       # Reads before turning the bus around for writes
system.mem_ctrls2.rdPerTurnAround::stdev    21.199522                       # Reads before turning the bus around for writes
system.mem_ctrls2.rdPerTurnAround::0-127        36061     99.89%     99.89% # Reads before turning the bus around for writes
system.mem_ctrls2.rdPerTurnAround::128-255           36      0.10%     99.99% # Reads before turning the bus around for writes
system.mem_ctrls2.rdPerTurnAround::1152-1279            1      0.00%    100.00% # Reads before turning the bus around for writes
system.mem_ctrls2.rdPerTurnAround::2816-2943            1      0.00%    100.00% # Reads before turning the bus around for writes
system.mem_ctrls2.rdPerTurnAround::total        36099                       # Reads before turning the bus around for writes
system.mem_ctrls2.wrPerTurnAround::samples        36099                       # Writes before turning the bus around for reads
system.mem_ctrls2.wrPerTurnAround::mean      5.591124                       # Writes before turning the bus around for reads
system.mem_ctrls2.wrPerTurnAround::gmean     5.394626                       # Writes before turning the bus around for reads
system.mem_ctrls2.wrPerTurnAround::stdev     1.952246                       # Writes before turning the bus around for reads
system.mem_ctrls2.wrPerTurnAround::4-7          32843     90.98%     90.98% # Writes before turning the bus around for reads
system.mem_ctrls2.wrPerTurnAround::8-11          2052      5.68%     96.66% # Writes before turning the bus around for reads
system.mem_ctrls2.wrPerTurnAround::12-15          711      1.97%     98.63% # Writes before turning the bus around for reads
system.mem_ctrls2.wrPerTurnAround::16-19          493      1.37%    100.00% # Writes before turning the bus around for reads
system.mem_ctrls2.wrPerTurnAround::total        36099                       # Writes before turning the bus around for reads
system.mem_ctrls2.totQLat                 28505124885                       # Total ticks spent queuing
system.mem_ctrls2.totMemAccLat            34597562385                       # Total ticks spent from burst creation until serviced by the DRAM
system.mem_ctrls2.totBusLat                1624650000                       # Total ticks spent in databus transfers
system.mem_ctrls2.avgQLat                    87726.97                       # Average queueing delay per DRAM burst
system.mem_ctrls2.avgBusLat                   5000.00                       # Average bus latency per DRAM burst
system.mem_ctrls2.avgMemAccLat              106476.97                       # Average memory access latency per DRAM burst
system.mem_ctrls2.avgRdBW                      159.10                       # Average DRAM read bandwidth in MiByte/s
system.mem_ctrls2.avgWrBW                       98.83                       # Average achieved write bandwidth in MiByte/s
system.mem_ctrls2.avgRdBWSys                   159.11                       # Average system read bandwidth in MiByte/s
system.mem_ctrls2.avgWrBWSys                    98.83                       # Average system write bandwidth in MiByte/s
system.mem_ctrls2.peakBW                     12800.00                       # Theoretical peak bandwidth in MiByte/s
system.mem_ctrls2.busUtil                        2.02                       # Data bus utilization in percentage
system.mem_ctrls2.busUtilRead                    1.24                       # Data bus utilization in percentage for reads
system.mem_ctrls2.busUtilWrite                   0.77                       # Data bus utilization in percentage for writes
system.mem_ctrls2.avgRdQLen                      1.23                       # Average read queue length when enqueuing
system.mem_ctrls2.avgWrQLen                      2.95                       # Average write queue length when enqueuing
system.mem_ctrls2.readRowHits                  251955                       # Number of row buffer hits during reads
system.mem_ctrls2.writeRowHits                 144065                       # Number of row buffer hits during writes
system.mem_ctrls2.readRowHitRate                77.54                       # Row buffer hit rate for reads
system.mem_ctrls2.writeRowHitRate               71.38                       # Row buffer hit rate for writes
system.mem_ctrls2.avgGap                    248116.64                       # Average gap between requests
system.mem_ctrls2.pageHitRate                   75.18                       # Row buffer hit rate, read and write combined
system.mem_ctrls2.memoryStateTime::IDLE   28403681250                       # Time in different power states
system.mem_ctrls2.memoryStateTime::REF     4364360000                       # Time in different power states
system.mem_ctrls2.memoryStateTime::PRE_PDN            0                       # Time in different power states
system.mem_ctrls2.memoryStateTime::ACT    97932362250                       # Time in different power states
system.mem_ctrls2.memoryStateTime::ACT_PDN            0                       # Time in different power states
system.mem_ctrls2.actEnergy::0              501522840                       # Energy for activate commands per rank (pJ)
system.mem_ctrls2.actEnergy::1              486848880                       # Energy for activate commands per rank (pJ)
system.mem_ctrls2.preEnergy::0              273648375                       # Energy for precharge commands per rank (pJ)
system.mem_ctrls2.preEnergy::1              265641750                       # Energy for precharge commands per rank (pJ)
system.mem_ctrls2.readEnergy::0            1275378000                       # Energy for read commands per rank (pJ)
system.mem_ctrls2.readEnergy::1            1258982400                       # Energy for read commands per rank (pJ)
system.mem_ctrls2.writeEnergy::0            656903520                       # Energy for write commands per rank (pJ)
system.mem_ctrls2.writeEnergy::1            650980800                       # Energy for write commands per rank (pJ)
system.mem_ctrls2.refreshEnergy::0         8536688160                       # Energy for refresh commands per rank (pJ)
system.mem_ctrls2.refreshEnergy::1         8536688160                       # Energy for refresh commands per rank (pJ)
system.mem_ctrls2.actBackEnergy::0        48874910490                       # Energy for active background per rank (pJ)
system.mem_ctrls2.actBackEnergy::1        47946812265                       # Energy for active background per rank (pJ)
system.mem_ctrls2.preBackEnergy::0        35547423000                       # Energy for precharge background per rank (pJ)
system.mem_ctrls2.preBackEnergy::1        36361544250                       # Energy for precharge background per rank (pJ)
system.mem_ctrls2.totalEnergy::0          95666474385                       # Total energy per rank (pJ)
system.mem_ctrls2.totalEnergy::1          95507498505                       # Total energy per rank (pJ)
system.mem_ctrls2.averagePower::0          731.953248                       # Core power per rank (mW)
system.mem_ctrls2.averagePower::1          730.736909                       # Core power per rank (mW)
system.mem_ctrls3.bytes_read::ruby.dir_cntrl3     20774592                       # Number of bytes read from this memory
system.mem_ctrls3.bytes_read::total          20774592                       # Number of bytes read from this memory
system.mem_ctrls3.bytes_written::ruby.dir_cntrl3     12916352                       # Number of bytes written to this memory
system.mem_ctrls3.bytes_written::total       12916352                       # Number of bytes written to this memory
system.mem_ctrls3.num_reads::ruby.dir_cntrl3       324603                       # Number of read requests responded to by this memory
system.mem_ctrls3.num_reads::total             324603                       # Number of read requests responded to by this memory
system.mem_ctrls3.num_writes::ruby.dir_cntrl3       201818                       # Number of write requests responded to by this memory
system.mem_ctrls3.num_writes::total            201818                       # Number of write requests responded to by this memory
system.mem_ctrls3.bw_read::ruby.dir_cntrl3    158944756                       # Total read bandwidth from this memory (bytes/s)
system.mem_ctrls3.bw_read::total            158944756                       # Total read bandwidth from this memory (bytes/s)
system.mem_ctrls3.bw_write::ruby.dir_cntrl3     98821985                       # Write bandwidth from this memory (bytes/s)
system.mem_ctrls3.bw_write::total            98821985                       # Write bandwidth from this memory (bytes/s)
system.mem_ctrls3.bw_total::ruby.dir_cntrl3    257766741                       # Total bandwidth to/from this memory (bytes/s)
system.mem_ctrls3.bw_total::total           257766741                       # Total bandwidth to/from this memory (bytes/s)
system.mem_ctrls3.readReqs                     324603                       # Number of read requests accepted
system.mem_ctrls3.writeReqs                    201818                       # Number of write requests accepted
system.mem_ctrls3.readBursts                   324603                       # Number of DRAM read bursts, including those serviced by the write queue
system.mem_ctrls3.writeBursts                  201818                       # Number of DRAM write bursts, including those merged in the write queue
system.mem_ctrls3.bytesReadDRAM              20773696                       # Total number of bytes read from DRAM
system.mem_ctrls3.bytesReadWrQ                    896                       # Total number of bytes read from write queue
system.mem_ctrls3.bytesWritten               12916160                       # Total number of bytes written to DRAM
system.mem_ctrls3.bytesReadSys               20774592                       # Total read bytes from the system interface side
system.mem_ctrls3.bytesWrittenSys            12916352                       # Total written bytes from the system interface side
system.mem_ctrls3.servicedByWrQ                    14                       # Number of DRAM read bursts serviced by the write queue
system.mem_ctrls3.mergedWrBursts                    0                       # Number of DRAM write bursts merged with an existing one
system.mem_ctrls3.neitherReadNorWriteReqs            0                       # Number of requests that are neither read nor write
system.mem_ctrls3.perBankRdBursts::0            20050                       # Per bank write bursts
system.mem_ctrls3.perBankRdBursts::1            20650                       # Per bank write bursts
system.mem_ctrls3.perBankRdBursts::2            20160                       # Per bank write bursts
system.mem_ctrls3.perBankRdBursts::3            20697                       # Per bank write bursts
system.mem_ctrls3.perBankRdBursts::4            20306                       # Per bank write bursts
system.mem_ctrls3.perBankRdBursts::5            20517                       # Per bank write bursts
system.mem_ctrls3.perBankRdBursts::6            20425                       # Per bank write bursts
system.mem_ctrls3.perBankRdBursts::7            20469                       # Per bank write bursts
system.mem_ctrls3.perBankRdBursts::8            20145                       # Per bank write bursts
system.mem_ctrls3.perBankRdBursts::9            20381                       # Per bank write bursts
system.mem_ctrls3.perBankRdBursts::10           20194                       # Per bank write bursts
system.mem_ctrls3.perBankRdBursts::11           20539                       # Per bank write bursts
system.mem_ctrls3.perBankRdBursts::12           19975                       # Per bank write bursts
system.mem_ctrls3.perBankRdBursts::13           19845                       # Per bank write bursts
system.mem_ctrls3.perBankRdBursts::14           20096                       # Per bank write bursts
system.mem_ctrls3.perBankRdBursts::15           20140                       # Per bank write bursts
system.mem_ctrls3.perBankWrBursts::0            12669                       # Per bank write bursts
system.mem_ctrls3.perBankWrBursts::1            12634                       # Per bank write bursts
system.mem_ctrls3.perBankWrBursts::2            12553                       # Per bank write bursts
system.mem_ctrls3.perBankWrBursts::3            12769                       # Per bank write bursts
system.mem_ctrls3.perBankWrBursts::4            12609                       # Per bank write bursts
system.mem_ctrls3.perBankWrBursts::5            12705                       # Per bank write bursts
system.mem_ctrls3.perBankWrBursts::6            12632                       # Per bank write bursts
system.mem_ctrls3.perBankWrBursts::7            12787                       # Per bank write bursts
system.mem_ctrls3.perBankWrBursts::8            12499                       # Per bank write bursts
system.mem_ctrls3.perBankWrBursts::9            12724                       # Per bank write bursts
system.mem_ctrls3.perBankWrBursts::10           12539                       # Per bank write bursts
system.mem_ctrls3.perBankWrBursts::11           12488                       # Per bank write bursts
system.mem_ctrls3.perBankWrBursts::12           12464                       # Per bank write bursts
system.mem_ctrls3.perBankWrBursts::13           12460                       # Per bank write bursts
system.mem_ctrls3.perBankWrBursts::14           12714                       # Per bank write bursts
system.mem_ctrls3.perBankWrBursts::15           12569                       # Per bank write bursts
system.mem_ctrls3.numRdRetry                    46674                       # Number of times read queue was full causing retry
system.mem_ctrls3.numWrRetry                     2518                       # Number of times write queue was full causing retry
system.mem_ctrls3.totGap                 130702403000                       # Total gap between requests
system.mem_ctrls3.readPktSize::0                    0                       # Read request sizes (log2)
system.mem_ctrls3.readPktSize::1                    0                       # Read request sizes (log2)
system.mem_ctrls3.readPktSize::2                    0                       # Read request sizes (log2)
system.mem_ctrls3.readPktSize::3                    0                       # Read request sizes (log2)
system.mem_ctrls3.readPktSize::4                    0                       # Read request sizes (log2)
system.mem_ctrls3.readPktSize::5                    0                       # Read request sizes (log2)
system.mem_ctrls3.readPktSize::6               324603                       # Read request sizes (log2)
system.mem_ctrls3.writePktSize::0                   0                       # Write request sizes (log2)
system.mem_ctrls3.writePktSize::1                   0                       # Write request sizes (log2)
system.mem_ctrls3.writePktSize::2                   0                       # Write request sizes (log2)
system.mem_ctrls3.writePktSize::3                   0                       # Write request sizes (log2)
system.mem_ctrls3.writePktSize::4                   0                       # Write request sizes (log2)
system.mem_ctrls3.writePktSize::5                   0                       # Write request sizes (log2)
system.mem_ctrls3.writePktSize::6              201818                       # Write request sizes (log2)
system.mem_ctrls3.rdQLenPdf::0                 170812                       # What read queue length does an incoming req see
system.mem_ctrls3.rdQLenPdf::1                   1564                       # What read queue length does an incoming req see
system.mem_ctrls3.rdQLenPdf::2                   1314                       # What read queue length does an incoming req see
system.mem_ctrls3.rdQLenPdf::3                   1543                       # What read queue length does an incoming req see
system.mem_ctrls3.rdQLenPdf::4                   1791                       # What read queue length does an incoming req see
system.mem_ctrls3.rdQLenPdf::5                   2117                       # What read queue length does an incoming req see
system.mem_ctrls3.rdQLenPdf::6                   2245                       # What read queue length does an incoming req see
system.mem_ctrls3.rdQLenPdf::7                   2472                       # What read queue length does an incoming req see
system.mem_ctrls3.rdQLenPdf::8                   2767                       # What read queue length does an incoming req see
system.mem_ctrls3.rdQLenPdf::9                   2964                       # What read queue length does an incoming req see
system.mem_ctrls3.rdQLenPdf::10                  3159                       # What read queue length does an incoming req see
system.mem_ctrls3.rdQLenPdf::11                  3251                       # What read queue length does an incoming req see
system.mem_ctrls3.rdQLenPdf::12                  3355                       # What read queue length does an incoming req see
system.mem_ctrls3.rdQLenPdf::13                  3370                       # What read queue length does an incoming req see
system.mem_ctrls3.rdQLenPdf::14                  3624                       # What read queue length does an incoming req see
system.mem_ctrls3.rdQLenPdf::15                  3681                       # What read queue length does an incoming req see
system.mem_ctrls3.rdQLenPdf::16                  3825                       # What read queue length does an incoming req see
system.mem_ctrls3.rdQLenPdf::17                  3882                       # What read queue length does an incoming req see
system.mem_ctrls3.rdQLenPdf::18                  4154                       # What read queue length does an incoming req see
system.mem_ctrls3.rdQLenPdf::19                  4263                       # What read queue length does an incoming req see
system.mem_ctrls3.rdQLenPdf::20                  4264                       # What read queue length does an incoming req see
system.mem_ctrls3.rdQLenPdf::21                  4244                       # What read queue length does an incoming req see
system.mem_ctrls3.rdQLenPdf::22                  4241                       # What read queue length does an incoming req see
system.mem_ctrls3.rdQLenPdf::23                  4249                       # What read queue length does an incoming req see
system.mem_ctrls3.rdQLenPdf::24                  4444                       # What read queue length does an incoming req see
[...]
system.ruby.L2Cache_Controller.ISS.Mem_Data::total       504282                      
system.ruby.L2Cache_Controller.IS.Mem_Data |         504      3.21%      3.21% |         453      2.89%      6.10% |         438      2.79%      8.89% |         449      2.86%     11.75% |         451      2.87%     14.63% |         430      2.74%     17.37% |         472      3.01%     20.38% |         491      3.13%     23.51% |         505      3.22%     26.73% |         445      2.84%     29.56% |         487      3.10%     32.67% |         498      3.17%     35.84% |         551      3.51%     39.35% |         523      3.33%     42.69% |         510      3.25%     45.94% |         492      3.14%     49.07% |         515      3.28%     52.36% |         532      3.39%     55.75% |         529      3.37%     59.12% |         483      3.08%     62.20% |         474      3.02%     65.22% |         523      3.33%     68.55% |         477      3.04%     71.59% |         450      2.87%     74.46% |         519      3.31%     77.77% |         578      3.68%     81.45% |         522      3.33%     84.78% |         479      3.05%     87.83% |         458      2.92%     90.75% |         510      3.25%     94.00% |         487      3.10%     97.11% |         454      2.89%    100.00%
system.ruby.L2Cache_Controller.IS.Mem_Data::total        15689                      
system.ruby.L2Cache_Controller.IM.L1_GETX |           2    100.00%    100.00% |           0      0.00%    100.00% |           0      0.00%    100.00% |           0      0.00%    100.00% |           0      0.00%    100.00% |           0      0.00%    100.00% |           0      0.00%    100.00% |           0      0.00%    100.00% |           0      0.00%    100.00% |           0      0.00%    100.00% |           0      0.00%    100.00% |           0      0.00%    100.00% |           0      0.00%    100.00% |           0      0.00%    100.00% |           0      0.00%    100.00% |           0      0.00%    100.00% |           0      0.00%    100.00% |           0      0.00%    100.00% |           0      0.00%    100.00% |           0      0.00%    100.00% |           0      0.00%    100.00% |           0      0.00%    100.00% |           0      0.00%    100.00% |           0      0.00%    100.00% |           0      0.00%    100.00% |           0      0.00%    100.00% |           0      0.00%    100.00% |           0      0.00%    100.00% |           0      0.00%    100.00% |           0      0.00%    100.00% |           0      0.00%    100.00% |           0      0.00%    100.00%
system.ruby.L2Cache_Controller.IM.L1_GETX::total            2                      
system.ruby.L2Cache_Controller.IM.Mem_Data |       24776      3.14%      3.14% |       24665      3.12%      6.26% |       24674      3.12%      9.38% |       24679      3.13%     12.51% |       24670      3.12%     15.63% |       24674      3.12%     18.76% |       24675      3.12%     21.88% |       24666      3.12%     25.01% |       24681      3.13%     28.13% |       24680      3.13%     31.26% |       24663      3.12%     34.38% |       24687      3.13%     37.51% |       24674      3.12%     40.63% |       24671      3.12%     43.75% |       24669      3.12%     46.88% |       24662      3.12%     50.00% |       24683      3.13%     53.13% |       24680      3.13%     56.25% |       24677      3.12%     59.38% |       24675      3.12%     62.50% |       24688      3.13%     65.63% |       24695      3.13%     68.75% |       24670      3.12%     71.88% |       24674      3.12%     75.00% |       24686      3.13%     78.13% |       24680      3.13%     81.25% |       24683      3.13%     84.38% |       24670      3.12%     87.50% |       24671      3.12%     90.63% |       24672      3.12%     93.75% |       24681      3.13%     96.88% |       24668      3.12%    100.00%
system.ruby.L2Cache_Controller.IM.Mem_Data::total       789719                      
system.ruby.L2Cache_Controller.SS_MB.Exclusive_Unblock |           2      4.17%      4.17% |           4      8.33%     12.50% |           5     10.42%     22.92% |           3      6.25%     29.17% |           0      0.00%     29.17% |           0      0.00%     29.17% |           0      0.00%     29.17% |           0      0.00%     29.17% |           1      2.08%     31.25% |           1      2.08%     33.33% |           0      0.00%     33.33% |           1      2.08%     35.42% |           6     12.50%     47.92% |           0      0.00%     47.92% |           2      4.17%     52.08% |           0      0.00%     52.08% |           0      0.00%     52.08% |           0      0.00%     52.08% |           7     14.58%     66.67% |           5     10.42%     77.08% |           1      2.08%     79.17% |           0      0.00%     79.17% |           0      0.00%     79.17% |           0      0.00%     79.17% |           1      2.08%     81.25% |           1      2.08%     83.33% |           1      2.08%     85.42% |           1      2.08%     87.50% |           5     10.42%     97.92% |           0      0.00%     97.92% |           1      2.08%    100.00% |           0      0.00%    100.00%
system.ruby.L2Cache_Controller.SS_MB.Exclusive_Unblock::total           48                      
system.ruby.L2Cache_Controller.MT_MB.L1_PUTX |           7    100.00%    100.00% |           0      0.00%    100.00% |           0      0.00%    100.00% |           0      0.00%    100.00% |           0      0.00%    100.00% |           0      0.00%    100.00% |           0      0.00%    100.00% |           0      0.00%    100.00% |           0      0.00%    100.00% |           0      0.00%    100.00% |           0      0.00%    100.00% |           0      0.00%    100.00% |           0      0.00%    100.00% |           0      0.00%    100.00% |           0      0.00%    100.00% |           0      0.00%    100.00% |           0      0.00%    100.00% |           0      0.00%    100.00% |           0      0.00%    100.00% |           0      0.00%    100.00% |           0      0.00%    100.00% |           0      0.00%    100.00% |           0      0.00%    100.00% |           0      0.00%    100.00% |           0      0.00%    100.00% |           0      0.00%    100.00% |           0      0.00%    100.00% |           0      0.00%    100.00% |           0      0.00%    100.00% |           0      0.00%    100.00% |           0      0.00%    100.00% |           0      0.00%    100.00%
system.ruby.L2Cache_Controller.MT_MB.L1_PUTX::total            7                      
system.ruby.L2Cache_Controller.MT_MB.Exclusive_Unblock |      171976      9.59%      9.59% |       54289      3.03%     12.61% |       49287      2.75%     15.36% |       52995      2.95%     18.31% |       53513      2.98%     21.30% |       49520      2.76%     24.06% |       45960      2.56%     26.62% |       45967      2.56%     29.18% |       51533      2.87%     32.05% |       49820      2.78%     34.83% |       54069      3.01%     37.84% |       51027      2.84%     40.69% |       48284      2.69%     43.38% |       46916      2.61%     45.99% |       47885      2.67%     48.66% |       46616      2.60%     51.26% |       50559      2.82%     54.08% |       48370      2.70%     56.77% |       49898      2.78%     59.55% |       54010      3.01%     62.57% |       54533      3.04%     65.60% |       63390      3.53%     69.14% |       58009      3.23%     72.37% |       53248      2.97%     75.34% |       53460      2.98%     78.32% |       51445      2.87%     81.19% |       52508      2.93%     84.11% |       52305      2.92%     87.03% |       55509      3.09%     90.12% |       55163      3.07%     93.20% |       63467      3.54%     96.73% |       58591      3.27%    100.00%
system.ruby.L2Cache_Controller.MT_MB.Exclusive_Unblock::total      1794122                      
system.ruby.L2Cache_Controller.MT_IIB.WB_Data |           0      0.00%      0.00% |           0      0.00%      0.00% |           1      7.14%      7.14% |           1      7.14%     14.29% |           1      7.14%     21.43% |           0      0.00%     21.43% |           1      7.14%     28.57% |           0      0.00%     28.57% |           1      7.14%     35.71% |           1      7.14%     42.86% |           1      7.14%     50.00% |           1      7.14%     57.14% |           1      7.14%     64.29% |           0      0.00%     64.29% |           1      7.14%     71.43% |           1      7.14%     78.57% |           1      7.14%     85.71% |           1      7.14%     92.86% |           1      7.14%    100.00% |           0      0.00%    100.00% |           0      0.00%    100.00% |           0      0.00%    100.00% |           0      0.00%    100.00% |           0      0.00%    100.00% |           0      0.00%    100.00% |           0      0.00%    100.00% |           0      0.00%    100.00% |           0      0.00%    100.00% |           0      0.00%    100.00% |           0      0.00%    100.00% |           0      0.00%    100.00% |           0      0.00%    100.00%
system.ruby.L2Cache_Controller.MT_IIB.WB_Data::total           14                      
system.ruby.L2Cache_Controller.MT_IIB.WB_Data_clean |           5    100.00%    100.00% |           0      0.00%    100.00% |           0      0.00%    100.00% |           0      0.00%    100.00% |           0      0.00%    100.00% |           0      0.00%    100.00% |           0      0.00%    100.00% |           0      0.00%    100.00% |           0      0.00%    100.00% |           0      0.00%    100.00% |           0      0.00%    100.00% |           0      0.00%    100.00% |           0      0.00%    100.00% |           0      0.00%    100.00% |           0      0.00%    100.00% |           0      0.00%    100.00% |           0      0.00%    100.00% |           0      0.00%    100.00% |           0      0.00%    100.00% |           0      0.00%    100.00% |           0      0.00%    100.00% |           0      0.00%    100.00% |           0      0.00%    100.00% |           0      0.00%    100.00% |           0      0.00%    100.00% |           0      0.00%    100.00% |           0      0.00%    100.00% |           0      0.00%    100.00% |           0      0.00%    100.00% |           0      0.00%    100.00% |           0      0.00%    100.00% |           0      0.00%    100.00%
system.ruby.L2Cache_Controller.MT_IIB.WB_Data_clean::total            5                      
system.ruby.L2Cache_Controller.MT_IIB.Unblock |           0      0.00%      0.00% |           0      0.00%      0.00% |           0      0.00%      0.00% |           0      0.00%      0.00% |           0      0.00%      0.00% |           0      0.00%      0.00% |           0      0.00%      0.00% |           1     50.00%     50.00% |           0      0.00%     50.00% |           0      0.00%     50.00% |           0      0.00%     50.00% |           0      0.00%     50.00% |           0      0.00%     50.00% |           1     50.00%    100.00% |           0      0.00%    100.00% |           0      0.00%    100.00% |           0      0.00%    100.00% |           0      0.00%    100.00% |           0      0.00%    100.00% |           0      0.00%    100.00% |           0      0.00%    100.00% |           0      0.00%    100.00% |           0      0.00%    100.00% |           0      0.00%    100.00% |           0      0.00%    100.00% |           0      0.00%    100.00% |           0      0.00%    100.00% |           0      0.00%    100.00% |           0      0.00%    100.00% |           0      0.00%    100.00% |           0      0.00%    100.00% |           0      0.00%    100.00%
system.ruby.L2Cache_Controller.MT_IIB.Unblock::total            2                      
system.ruby.L2Cache_Controller.MT_IB.WB_Data |           0      0.00%      0.00% |           0      0.00%      0.00% |           0      0.00%      0.00% |           0      0.00%      0.00% |           0      0.00%      0.00% |           0      0.00%      0.00% |           0      0.00%      0.00% |           1     50.00%     50.00% |           0      0.00%     50.00% |           0      0.00%     50.00% |           0      0.00%     50.00% |           0      0.00%     50.00% |           0      0.00%     50.00% |           1     50.00%    100.00% |           0      0.00%    100.00% |           0      0.00%    100.00% |           0      0.00%    100.00% |           0      0.00%    100.00% |           0      0.00%    100.00% |           0      0.00%    100.00% |           0      0.00%    100.00% |           0      0.00%    100.00% |           0      0.00%    100.00% |           0      0.00%    100.00% |           0      0.00%    100.00% |           0      0.00%    100.00% |           0      0.00%    100.00% |           0      0.00%    100.00% |           0      0.00%    100.00% |           0      0.00%    100.00% |           0      0.00%    100.00% |           0      0.00%    100.00%
system.ruby.L2Cache_Controller.MT_IB.WB_Data::total            2                      
system.ruby.L2Cache_Controller.MT_SB.Unblock |           5     26.32%     26.32% |           0      0.00%     26.32% |           1      5.26%     31.58% |           1      5.26%     36.84% |           1      5.26%     42.11% |           0      0.00%     42.11% |           1      5.26%     47.37% |           0      0.00%     47.37% |           1      5.26%     52.63% |           1      5.26%     57.89% |           1      5.26%     63.16% |           1      5.26%     68.42% |           1      5.26%     73.68% |           0      0.00%     73.68% |           1      5.26%     78.95% |           1      5.26%     84.21% |           1      5.26%     89.47% |           1      5.26%     94.74% |           1      5.26%    100.00% |           0      0.00%    100.00% |           0      0.00%    100.00% |           0      0.00%    100.00% |           0      0.00%    100.00% |           0      0.00%    100.00% |           0      0.00%    100.00% |           0      0.00%    100.00% |           0      0.00%    100.00% |           0      0.00%    100.00% |           0      0.00%    100.00% |           0      0.00%    100.00% |           0      0.00%    100.00% |           0      0.00%    100.00%
system.ruby.L2Cache_Controller.MT_SB.Unblock::total           19                      
system.ruby.SimicsNetworkPortInterface_Controller.MessageSend |       85319     16.81%     16.81% |      253748     50.00%     66.81% |       20928      4.12%     70.94% |       22148      4.36%     75.30% |       20871      4.11%     79.41% |       23364      4.60%     84.02% |       20981      4.13%     88.15% |       22178      4.37%     92.52% |       18146      3.58%     96.10% |       19813      3.90%    100.00% |           0      0.00%    100.00% |           0      0.00%    100.00% |           0      0.00%    100.00% |           0      0.00%    100.00% |           0      0.00%    100.00% |           0      0.00%    100.00% |           0      0.00%    100.00% |           0      0.00%    100.00% |           0      0.00%    100.00% |           0      0.00%    100.00% |           0      0.00%    100.00% |           0      0.00%    100.00% |           0      0.00%    100.00% |           0      0.00%    100.00% |           0      0.00%    100.00% |           0      0.00%    100.00% |           0      0.00%    100.00% |           0      0.00%    100.00% |           0      0.00%    100.00% |           0      0.00%    100.00% |           0      0.00%    100.00% |           0      0.00%    100.00%
system.ruby.SimicsNetworkPortInterface_Controller.MessageSend::total       507496                      
system.ruby.SimicsNetworkPortInterface_Controller.MessageRecv |       85319     16.81%     16.81% |      253748     50.00%     66.81% |       20928      4.12%     70.94% |       22148      4.36%     75.30% |       20871      4.11%     79.41% |       23364      4.60%     84.02% |       20981      4.13%     88.15% |       22178      4.37%     92.52% |       18146      3.58%     96.10% |       19813      3.90%    100.00% |           0      0.00%    100.00% |           0      0.00%    100.00% |           0      0.00%    100.00% |           0      0.00%    100.00% |           0      0.00%    100.00% |           0      0.00%    100.00% |           0      0.00%    100.00% |           0      0.00%    100.00% |           0      0.00%    100.00% |           0      0.00%    100.00% |           0      0.00%    100.00% |           0      0.00%    100.00% |           0      0.00%    100.00% |           0      0.00%    100.00% |           0      0.00%    100.00% |           0      0.00%    100.00% |           0      0.00%    100.00% |           0      0.00%    100.00% |           0      0.00%    100.00% |           0      0.00%    100.00% |           0      0.00%    100.00% |           0      0.00%    100.00%
system.ruby.SimicsNetworkPortInterface_Controller.MessageRecv::total       507496                      
system.ruby.SimicsNetworkPortInterface_Controller.A.MessageSend |       85319     16.81%     16.81% |      253748     50.00%     66.81% |       20928      4.12%     70.94% |       22148      4.36%     75.30% |       20871      4.11%     79.41% |       23364      4.60%     84.02% |       20981      4.13%     88.15% |       22178      4.37%     92.52% |       18146      3.58%     96.10% |       19813      3.90%    100.00% |           0      0.00%    100.00% |           0      0.00%    100.00% |           0      0.00%    100.00% |           0      0.00%    100.00% |           0      0.00%    100.00% |           0      0.00%    100.00% |           0      0.00%    100.00% |           0      0.00%    100.00% |           0      0.00%    100.00% |           0      0.00%    100.00% |           0      0.00%    100.00% |           0      0.00%    100.00% |           0      0.00%    100.00% |           0      0.00%    100.00% |           0      0.00%    100.00% |           0      0.00%    100.00% |           0      0.00%    100.00% |           0      0.00%    100.00% |           0      0.00%    100.00% |           0      0.00%    100.00% |           0      0.00%    100.00% |           0      0.00%    100.00%
system.ruby.SimicsNetworkPortInterface_Controller.A.MessageSend::total       507496                      
system.ruby.SimicsNetworkPortInterface_Controller.A.MessageRecv |       85319     16.81%     16.81% |      253748     50.00%     66.81% |       20928      4.12%     70.94% |       22148      4.36%     75.30% |       20871      4.11%     79.41% |       23364      4.60%     84.02% |       20981      4.13%     88.15% |       22178      4.37%     92.52% |       18146      3.58%     96.10% |       19813      3.90%    100.00% |           0      0.00%    100.00% |           0      0.00%    100.00% |           0      0.00%    100.00% |           0      0.00%    100.00% |           0      0.00%    100.00% |           0      0.00%    100.00% |           0      0.00%    100.00% |           0      0.00%    100.00% |           0      0.00%    100.00% |           0      0.00%    100.00% |           0      0.00%    100.00% |           0      0.00%    100.00% |           0      0.00%    100.00% |           0      0.00%    100.00% |           0      0.00%    100.00% |           0      0.00%    100.00% |           0      0.00%    100.00% |           0      0.00%    100.00% |           0      0.00%    100.00% |           0      0.00%    100.00% |           0      0.00%    100.00% |           0      0.00%    100.00%
system.ruby.SimicsNetworkPortInterface_Controller.A.MessageRecv::total       507496                      
system.switch_cpus.kern.inst.arm                    0                       # number of arm instructions executed
system.switch_cpus.kern.inst.quiesce                0                       # number of quiesce instructions executed

---------- End Simulation Statistics   ----------
