
---------- Begin Simulation Statistics ----------
sim_seconds                                  0.153916                       # Number of seconds simulated
sim_ticks                                153915738500                       # Number of ticks simulated
final_tick                               5330083817000                       # Number of ticks from beginning of simulation (restored from checkpoints and never reset)
sim_freq                                 1000000000000                       # Frequency of simulated ticks
host_inst_rate                                  40687                       # Simulator instruction rate (inst/s)
host_op_rate                                    77437                       # Simulator op (including micro ops) rate (op/s)
host_tick_rate                               96766364                       # Simulator tick rate (ticks/s)
host_mem_usage                                4508128                       # Number of bytes of host memory used
host_seconds                                  1590.59                       # Real time elapsed on the host
sim_insts                                    64716031                       # Number of instructions simulated
sim_ops                                     123170974                       # Number of ops (including micro ops) simulated
system.voltage_domain.voltage                       1                       # Voltage in Volts
system.clk_domain.clock                           500                       # Clock period in ticks
system.mem_ctrls0.bytes_read::ruby.dir_cntrl0     25269440                       # Number of bytes read from this memory
system.mem_ctrls0.bytes_read::total          25269440                       # Number of bytes read from this memory
system.mem_ctrls0.bytes_written::ruby.dir_cntrl0     21423296                       # Number of bytes written to this memory
system.mem_ctrls0.bytes_written::total       21423296                       # Number of bytes written to this memory
system.mem_ctrls0.num_reads::ruby.dir_cntrl0       394835                       # Number of read requests responded to by this memory
system.mem_ctrls0.num_reads::total             394835                       # Number of read requests responded to by this memory
system.mem_ctrls0.num_writes::ruby.dir_cntrl0       334739                       # Number of write requests responded to by this memory
system.mem_ctrls0.num_writes::total            334739                       # Number of write requests responded to by this memory
system.mem_ctrls0.bw_read::ruby.dir_cntrl0    164177103                       # Total read bandwidth from this memory (bytes/s)
system.mem_ctrls0.bw_read::total            164177103                       # Total read bandwidth from this memory (bytes/s)
system.mem_ctrls0.bw_write::ruby.dir_cntrl0    139188469                       # Write bandwidth from this memory (bytes/s)
system.mem_ctrls0.bw_write::total           139188469                       # Write bandwidth from this memory (bytes/s)
system.mem_ctrls0.bw_total::ruby.dir_cntrl0    303365572                       # Total bandwidth to/from this memory (bytes/s)
system.mem_ctrls0.bw_total::total           303365572                       # Total bandwidth to/from this memory (bytes/s)
system.mem_ctrls0.readReqs                     394836                       # Number of read requests accepted
system.mem_ctrls0.writeReqs                    334739                       # Number of write requests accepted
system.mem_ctrls0.readBursts                   394836                       # Number of DRAM read bursts, including those serviced by the write queue
system.mem_ctrls0.writeBursts                  334739                       # Number of DRAM write bursts, including those merged in the write queue
system.mem_ctrls0.bytesReadDRAM              25268352                       # Total number of bytes read from DRAM
system.mem_ctrls0.bytesReadWrQ                   1152                       # Total number of bytes read from write queue
system.mem_ctrls0.bytesWritten               21423104                       # Total number of bytes written to DRAM
system.mem_ctrls0.bytesReadSys               25269504                       # Total read bytes from the system interface side
system.mem_ctrls0.bytesWrittenSys            21423296                       # Total written bytes from the system interface side
system.mem_ctrls0.servicedByWrQ                    18                       # Number of DRAM read bursts serviced by the write queue
system.mem_ctrls0.mergedWrBursts                    0                       # Number of DRAM write bursts merged with an existing one
system.mem_ctrls0.neitherReadNorWriteReqs            0                       # Number of requests that are neither read nor write
system.mem_ctrls0.perBankRdBursts::0            24364                       # Per bank write bursts
system.mem_ctrls0.perBankRdBursts::1            25076                       # Per bank write bursts
system.mem_ctrls0.perBankRdBursts::2            24641                       # Per bank write bursts
system.mem_ctrls0.perBankRdBursts::3            24953                       # Per bank write bursts
system.mem_ctrls0.perBankRdBursts::4            24586                       # Per bank write bursts
system.mem_ctrls0.perBankRdBursts::5            24930                       # Per bank write bursts
system.mem_ctrls0.perBankRdBursts::6            24972                       # Per bank write bursts
system.mem_ctrls0.perBankRdBursts::7            24750                       # Per bank write bursts
system.mem_ctrls0.perBankRdBursts::8            24656                       # Per bank write bursts
system.mem_ctrls0.perBankRdBursts::9            24785                       # Per bank write bursts
system.mem_ctrls0.perBankRdBursts::10           24574                       # Per bank write bursts
system.mem_ctrls0.perBankRdBursts::11           25073                       # Per bank write bursts
system.mem_ctrls0.perBankRdBursts::12           24326                       # Per bank write bursts
system.mem_ctrls0.perBankRdBursts::13           24249                       # Per bank write bursts
system.mem_ctrls0.perBankRdBursts::14           24410                       # Per bank write bursts
system.mem_ctrls0.perBankRdBursts::15           24473                       # Per bank write bursts
system.mem_ctrls0.perBankWrBursts::0            20952                       # Per bank write bursts
system.mem_ctrls0.perBankWrBursts::1            20847                       # Per bank write bursts
system.mem_ctrls0.perBankWrBursts::2            20842                       # Per bank write bursts
system.mem_ctrls0.perBankWrBursts::3            21122                       # Per bank write bursts
system.mem_ctrls0.perBankWrBursts::4            20751                       # Per bank write bursts
system.mem_ctrls0.perBankWrBursts::5            21053                       # Per bank write bursts
system.mem_ctrls0.perBankWrBursts::6            21092                       # Per bank write bursts
system.mem_ctrls0.perBankWrBursts::7            21013                       # Per bank write bursts
system.mem_ctrls0.perBankWrBursts::8            21126                       # Per bank write bursts
system.mem_ctrls0.perBankWrBursts::9            20910                       # Per bank write bursts
system.mem_ctrls0.perBankWrBursts::10           20836                       # Per bank write bursts
system.mem_ctrls0.perBankWrBursts::11           20891                       # Per bank write bursts
system.mem_ctrls0.perBankWrBursts::12           20653                       # Per bank write bursts
system.mem_ctrls0.perBankWrBursts::13           20917                       # Per bank write bursts
system.mem_ctrls0.perBankWrBursts::14           20906                       # Per bank write bursts
system.mem_ctrls0.perBankWrBursts::15           20825                       # Per bank write bursts
system.mem_ctrls0.numRdRetry                   101012                       # Number of times read queue was full causing retry
system.mem_ctrls0.numWrRetry                    12275                       # Number of times write queue was full causing retry
system.mem_ctrls0.totGap                 153915475000                       # Total gap between requests
system.mem_ctrls0.readPktSize::0                    0                       # Read request sizes (log2)
system.mem_ctrls0.readPktSize::1                    0                       # Read request sizes (log2)
system.mem_ctrls0.readPktSize::2                    0                       # Read request sizes (log2)
system.mem_ctrls0.readPktSize::3                    0                       # Read request sizes (log2)
system.mem_ctrls0.readPktSize::4                    0                       # Read request sizes (log2)
system.mem_ctrls0.readPktSize::5                    0                       # Read request sizes (log2)
system.mem_ctrls0.readPktSize::6               394836                       # Read request sizes (log2)
system.mem_ctrls0.writePktSize::0                   0                       # Write request sizes (log2)
system.mem_ctrls0.writePktSize::1                   0                       # Write request sizes (log2)
system.mem_ctrls0.writePktSize::2                   0                       # Write request sizes (log2)
system.mem_ctrls0.writePktSize::3                   0                       # Write request sizes (log2)
system.mem_ctrls0.writePktSize::4                   0                       # Write request sizes (log2)
system.mem_ctrls0.writePktSize::5                   0                       # Write request sizes (log2)
system.mem_ctrls0.writePktSize::6              334739                       # Write request sizes (log2)
system.mem_ctrls0.rdQLenPdf::0                 204672                       # What read queue length does an incoming req see
system.mem_ctrls0.rdQLenPdf::1                   5919                       # What read queue length does an incoming req see
system.mem_ctrls0.rdQLenPdf::2                   3421                       # What read queue length does an incoming req see
system.mem_ctrls0.rdQLenPdf::3                   1080                       # What read queue length does an incoming req see
system.mem_ctrls0.rdQLenPdf::4                   1323                       # What read queue length does an incoming req see
system.mem_ctrls0.rdQLenPdf::5                   1610                       # What read queue length does an incoming req see
system.mem_ctrls0.rdQLenPdf::6                   1717                       # What read queue length does an incoming req see
system.mem_ctrls0.rdQLenPdf::7                   1836                       # What read queue length does an incoming req see
system.mem_ctrls0.rdQLenPdf::8                   1874                       # What read queue length does an incoming req see
system.mem_ctrls0.rdQLenPdf::9                   2026                       # What read queue length does an incoming req see
system.mem_ctrls0.rdQLenPdf::10                  2096                       # What read queue length does an incoming req see
system.mem_ctrls0.rdQLenPdf::11                  2288                       # What read queue length does an incoming req see
system.mem_ctrls0.rdQLenPdf::12                  2320                       # What read queue length does an incoming req see
system.mem_ctrls0.rdQLenPdf::13                  2381                       # What read queue length does an incoming req see
system.mem_ctrls0.rdQLenPdf::14                  2470                       # What read queue length does an incoming req see
system.mem_ctrls0.rdQLenPdf::15                  2526                       # What read queue length does an incoming req see
system.mem_ctrls0.rdQLenPdf::16                  2608                       # What read queue length does an incoming req see
system.mem_ctrls0.rdQLenPdf::17                  2640                       # What read queue length does an incoming req see
system.mem_ctrls0.rdQLenPdf::18                  2749                       # What read queue length does an incoming req see
system.mem_ctrls0.rdQLenPdf::19                  2772                       # What read queue length does an incoming req see
system.mem_ctrls0.rdQLenPdf::20                  2905                       # What read queue length does an incoming req see
system.mem_ctrls0.rdQLenPdf::21                  2856                       # What read queue length does an incoming req see
system.mem_ctrls0.rdQLenPdf::22                  3010                       # What read queue length does an incoming req see
system.mem_ctrls0.rdQLenPdf::23                  3053                       # What read queue length does an incoming req see
system.mem_ctrls0.rdQLenPdf::24                  2962                       # What read queue length does an incoming req see
system.mem_ctrls0.rdQLenPdf::25                  3059                       # What read queue length does an incoming req see
system.mem_ctrls0.rdQLenPdf::26                  3242                       # What read queue length does an incoming req see
system.mem_ctrls0.rdQLenPdf::27                  3520                       # What read queue length does an incoming req see
system.mem_ctrls0.rdQLenPdf::28                  3708                       # What read queue length does an incoming req see
system.mem_ctrls0.rdQLenPdf::29                  4017                       # What read queue length does an incoming req see
system.mem_ctrls0.rdQLenPdf::30                  4674                       # What read queue length does an incoming req see
system.mem_ctrls0.rdQLenPdf::31                107484                       # What read queue length does an incoming req see
system.mem_ctrls0.wrQLenPdf::0                  48785                       # What write queue length does an incoming req see
system.mem_ctrls0.wrQLenPdf::1                  52633                       # What write queue length does an incoming req see
system.mem_ctrls0.wrQLenPdf::2                  54842                       # What write queue length does an incoming req see
system.mem_ctrls0.wrQLenPdf::3                  55157                       # What write queue length does an incoming req see
system.mem_ctrls0.wrQLenPdf::4                  55646                       # What write queue length does an incoming req see
system.mem_ctrls0.wrQLenPdf::5                  16904                       # What write queue length does an incoming req see
system.mem_ctrls0.wrQLenPdf::6                  20783                       # What write queue length does an incoming req see
system.mem_ctrls0.wrQLenPdf::7                  29989                       # What write queue length does an incoming req see
system.mem_ctrls0.bytesPerActivate::samples       226313                       # Bytes accessed per row activation
system.mem_ctrls0.bytesPerActivate::mean   206.307123                       # Bytes accessed per row activation
system.mem_ctrls0.bytesPerActivate::gmean   157.572636                       # Bytes accessed per row activation
system.mem_ctrls0.bytesPerActivate::stdev   158.016177                       # Bytes accessed per row activation
system.mem_ctrls0.bytesPerActivate::0-127        75347     33.29%     33.29% # Bytes accessed per row activation
system.mem_ctrls0.bytesPerActivate::128-255        59861     26.45%     59.74% # Bytes accessed per row activation
system.mem_ctrls0.bytesPerActivate::256-383        70395     31.11%     90.85% # Bytes accessed per row activation
system.mem_ctrls0.bytesPerActivate::384-511         9636      4.26%     95.11% # Bytes accessed per row activation
system.mem_ctrls0.bytesPerActivate::512-639         5074      2.24%     97.35% # Bytes accessed per row activation
system.mem_ctrls0.bytesPerActivate::640-767         2625      1.16%     98.51% # Bytes accessed per row activation
system.mem_ctrls0.bytesPerActivate::768-895         1355      0.60%     99.11% # Bytes accessed per row activation
system.mem_ctrls0.bytesPerActivate::896-1023          778      0.34%     99.45% # Bytes accessed per row activation
system.mem_ctrls0.bytesPerActivate::1024-1151         1242      0.55%    100.00% # Bytes accessed per row activation
system.mem_ctrls0.bytesPerActivate::total       226313                       # Bytes accessed per row activation
system.mem_ctrls0.rdPerTurnAround::samples        50325                       # Reads before turning the bus around for writes
system.mem_ctrls0.rdPerTurnAround::mean      7.845365                       # Reads before turning the bus around for writes
system.mem_ctrls0.rdPerTurnAround::stdev    18.912683                       # Reads before turning the bus around for writes
system.mem_ctrls0.rdPerTurnAround::0-127        50317     99.98%     99.98% # Reads before turning the bus around for writes
system.mem_ctrls0.rdPerTurnAround::128-255            7      0.01%    100.00% # Reads before turning the bus around for writes
system.mem_ctrls0.rdPerTurnAround::3968-4095            1      0.00%    100.00% # Reads before turning the bus around for writes
system.mem_ctrls0.rdPerTurnAround::total        50325                       # Reads before turning the bus around for writes
system.mem_ctrls0.wrPerTurnAround::samples        50324                       # Writes before turning the bus around for reads
system.mem_ctrls0.wrPerTurnAround::mean      6.651578                       # Writes before turning the bus around for reads
system.mem_ctrls0.wrPerTurnAround::gmean     6.069380                       # Writes before turning the bus around for reads
system.mem_ctrls0.wrPerTurnAround::stdev     3.433786                       # Writes before turning the bus around for reads
system.mem_ctrls0.wrPerTurnAround::4-7          40404     80.29%     80.29% # Writes before turning the bus around for reads
system.mem_ctrls0.wrPerTurnAround::8-11          2659      5.28%     85.57% # Writes before turning the bus around for reads
system.mem_ctrls0.wrPerTurnAround::12-15         4673      9.29%     94.86% # Writes before turning the bus around for reads
system.mem_ctrls0.wrPerTurnAround::16-19         2588      5.14%    100.00% # Writes before turning the bus around for reads
system.mem_ctrls0.wrPerTurnAround::total        50324                       # Writes before turning the bus around for reads
system.mem_ctrls0.totQLat                 63315766425                       # Total ticks spent queuing
system.mem_ctrls0.totMemAccLat            70718603925                       # Total ticks spent from burst creation until serviced by the DRAM
system.mem_ctrls0.totBusLat                1974090000                       # Total ticks spent in databus transfers
system.mem_ctrls0.avgQLat                   160366.97                       # Average queueing delay per DRAM burst
system.mem_ctrls0.avgBusLat                   5000.00                       # Average bus latency per DRAM burst
system.mem_ctrls0.avgMemAccLat              179116.97                       # Average memory access latency per DRAM burst
system.mem_ctrls0.avgRdBW                      164.17                       # Average DRAM read bandwidth in MiByte/s
system.mem_ctrls0.avgWrBW                      139.19                       # Average achieved write bandwidth in MiByte/s
system.mem_ctrls0.avgRdBWSys                   164.18                       # Average system read bandwidth in MiByte/s
system.mem_ctrls0.avgWrBWSys                   139.19                       # Average system write bandwidth in MiByte/s
system.mem_ctrls0.peakBW                     12800.00                       # Theoretical peak bandwidth in MiByte/s
system.mem_ctrls0.busUtil                        2.37                       # Data bus utilization in percentage
system.mem_ctrls0.busUtilRead                    1.28                       # Data bus utilization in percentage for reads
system.mem_ctrls0.busUtilWrite                   1.09                       # Data bus utilization in percentage for writes
system.mem_ctrls0.avgRdQLen                      1.42                       # Average read queue length when enqueuing
system.mem_ctrls0.avgWrQLen                      2.98                       # Average write queue length when enqueuing
system.mem_ctrls0.readRowHits                  290735                       # Number of row buffer hits during reads
system.mem_ctrls0.writeRowHits                 212493                       # Number of row buffer hits during writes
system.mem_ctrls0.readRowHitRate                73.64                       # Row buffer hit rate for reads
system.mem_ctrls0.writeRowHitRate               63.48                       # Row buffer hit rate for writes
system.mem_ctrls0.avgGap                    210965.94                       # Average gap between requests
system.mem_ctrls0.pageHitRate                   68.98                       # Row buffer hit rate, read and write combined
system.mem_ctrls0.memoryStateTime::IDLE   26566059250                       # Time in different power states
system.mem_ctrls0.memoryStateTime::REF     5139420000                       # Time in different power states
system.mem_ctrls0.memoryStateTime::PRE_PDN            0                       # Time in different power states
system.mem_ctrls0.memoryStateTime::ACT   122205598250                       # Time in different power states
system.mem_ctrls0.memoryStateTime::ACT_PDN            0                       # Time in different power states
system.mem_ctrls0.actEnergy::0              861227640                       # Energy for activate commands per rank (pJ)
system.mem_ctrls0.actEnergy::1              849600360                       # Energy for activate commands per rank (pJ)
system.mem_ctrls0.preEnergy::0              469915875                       # Energy for precharge commands per rank (pJ)
system.mem_ctrls0.preEnergy::1              463571625                       # Energy for precharge commands per rank (pJ)
system.mem_ctrls0.readEnergy::0            1546428000                       # Energy for read commands per rank (pJ)
system.mem_ctrls0.readEnergy::1            1532934000                       # Energy for read commands per rank (pJ)
system.mem_ctrls0.writeEnergy::0           1086456240                       # Energy for write commands per rank (pJ)
system.mem_ctrls0.writeEnergy::1           1082522880                       # Energy for write commands per rank (pJ)
system.mem_ctrls0.refreshEnergy::0        10052705520                       # Energy for refresh commands per rank (pJ)
system.mem_ctrls0.refreshEnergy::1        10052705520                       # Energy for refresh commands per rank (pJ)
system.mem_ctrls0.actBackEnergy::0        61181290575                       # Energy for active background per rank (pJ)
system.mem_ctrls0.actBackEnergy::1        60925009455                       # Energy for active background per rank (pJ)
system.mem_ctrls0.preBackEnergy::0        38678839500                       # Energy for precharge background per rank (pJ)
system.mem_ctrls0.preBackEnergy::1        38903647500                       # Energy for precharge background per rank (pJ)
system.mem_ctrls0.totalEnergy::0         113876863350                       # Total energy per rank (pJ)
system.mem_ctrls0.totalEnergy::1         113809991340                       # Total energy per rank (pJ)
system.mem_ctrls0.averagePower::0          739.887443                       # Core power per rank (mW)
system.mem_ctrls0.averagePower::1          739.452958                       # Core power per rank (mW)
system.mem_ctrls1.bytes_read::ruby.dir_cntrl1     24509184                       # Number of bytes read from this memory
system.mem_ctrls1.bytes_read::total          24509184                       # Number of bytes read from this memory
system.mem_ctrls1.bytes_written::ruby.dir_cntrl1     20685440                       # Number of bytes written to this memory
system.mem_ctrls1.bytes_written::total       20685440                       # Number of bytes written to this memory
system.mem_ctrls1.num_reads::ruby.dir_cntrl1       382956                       # Number of read requests responded to by this memory
system.mem_ctrls1.num_reads::total             382956                       # Number of read requests responded to by this memory
system.mem_ctrls1.num_writes::ruby.dir_cntrl1       323210                       # Number of write requests responded to by this memory
system.mem_ctrls1.num_writes::total            323210                       # Number of write requests responded to by this memory
system.mem_ctrls1.bw_read::ruby.dir_cntrl1    159237673                       # Total read bandwidth from this memory (bytes/s)
system.mem_ctrls1.bw_read::total            159237673                       # Total read bandwidth from this memory (bytes/s)
system.mem_ctrls1.bw_write::ruby.dir_cntrl1    134394573                       # Write bandwidth from this memory (bytes/s)
system.mem_ctrls1.bw_write::total           134394573                       # Write bandwidth from this memory (bytes/s)
system.mem_ctrls1.bw_total::ruby.dir_cntrl1    293632246                       # Total bandwidth to/from this memory (bytes/s)
system.mem_ctrls1.bw_total::total           293632246                       # Total bandwidth to/from this memory (bytes/s)
system.mem_ctrls1.readReqs                     382956                       # Number of read requests accepted
system.mem_ctrls1.writeReqs                    323210                       # Number of write requests accepted
system.mem_ctrls1.readBursts                   382956                       # Number of DRAM read bursts, including those serviced by the write queue
system.mem_ctrls1.writeBursts                  323210                       # Number of DRAM write bursts, including those merged in the write queue
system.mem_ctrls1.bytesReadDRAM              24507904                       # Total number of bytes read from DRAM
system.mem_ctrls1.bytesReadWrQ                   1280                       # Total number of bytes read from write queue
system.mem_ctrls1.bytesWritten               20685440                       # Total number of bytes written to DRAM
system.mem_ctrls1.bytesReadSys               24509184                       # Total read bytes from the system interface side
system.mem_ctrls1.bytesWrittenSys            20685440                       # Total written bytes from the system interface side
system.mem_ctrls1.servicedByWrQ                    20                       # Number of DRAM read bursts serviced by the write queue
system.mem_ctrls1.mergedWrBursts                    0                       # Number of DRAM write bursts merged with an existing one
system.mem_ctrls1.neitherReadNorWriteReqs            0                       # Number of requests that are neither read nor write
system.mem_ctrls1.perBankRdBursts::0            23652                       # Per bank write bursts
system.mem_ctrls1.perBankRdBursts::1            24328                       # Per bank write bursts
system.mem_ctrls1.perBankRdBursts::2            23893                       # Per bank write bursts
system.mem_ctrls1.perBankRdBursts::3            24204                       # Per bank write bursts
system.mem_ctrls1.perBankRdBursts::4            23868                       # Per bank write bursts
system.mem_ctrls1.perBankRdBursts::5            24185                       # Per bank write bursts
system.mem_ctrls1.perBankRdBursts::6            24225                       # Per bank write bursts
system.mem_ctrls1.perBankRdBursts::7            24042                       # Per bank write bursts
system.mem_ctrls1.perBankRdBursts::8            23915                       # Per bank write bursts
system.mem_ctrls1.perBankRdBursts::9            24036                       # Per bank write bursts
system.mem_ctrls1.perBankRdBursts::10           23807                       # Per bank write bursts
system.mem_ctrls1.perBankRdBursts::11           24345                       # Per bank write bursts
system.mem_ctrls1.perBankRdBursts::12           23594                       # Per bank write bursts
system.mem_ctrls1.perBankRdBursts::13           23492                       # Per bank write bursts
system.mem_ctrls1.perBankRdBursts::14           23598                       # Per bank write bursts
system.mem_ctrls1.perBankRdBursts::15           23752                       # Per bank write bursts
system.mem_ctrls1.perBankWrBursts::0            20231                       # Per bank write bursts
system.mem_ctrls1.perBankWrBursts::1            20144                       # Per bank write bursts
system.mem_ctrls1.perBankWrBursts::2            20137                       # Per bank write bursts
system.mem_ctrls1.perBankWrBursts::3            20413                       # Per bank write bursts
system.mem_ctrls1.perBankWrBursts::4            20042                       # Per bank write bursts
system.mem_ctrls1.perBankWrBursts::5            20341                       # Per bank write bursts
system.mem_ctrls1.perBankWrBursts::6            20359                       # Per bank write bursts
system.mem_ctrls1.perBankWrBursts::7            20283                       # Per bank write bursts
system.mem_ctrls1.perBankWrBursts::8            20400                       # Per bank write bursts
system.mem_ctrls1.perBankWrBursts::9            20187                       # Per bank write bursts
system.mem_ctrls1.perBankWrBursts::10           20120                       # Per bank write bursts
system.mem_ctrls1.perBankWrBursts::11           20175                       # Per bank write bursts
system.mem_ctrls1.perBankWrBursts::12           19936                       # Per bank write bursts
system.mem_ctrls1.perBankWrBursts::13           20196                       # Per bank write bursts
system.mem_ctrls1.perBankWrBursts::14           20133                       # Per bank write bursts
system.mem_ctrls1.perBankWrBursts::15           20113                       # Per bank write bursts
system.mem_ctrls1.numRdRetry                    76496                       # Number of times read queue was full causing retry
system.mem_ctrls1.numWrRetry                    10718                       # Number of times write queue was full causing retry
system.mem_ctrls1.totGap                 153914984000                       # Total gap between requests
system.mem_ctrls1.readPktSize::0                    0                       # Read request sizes (log2)
system.mem_ctrls1.readPktSize::1                    0                       # Read request sizes (log2)
system.mem_ctrls1.readPktSize::2                    0                       # Read request sizes (log2)
system.mem_ctrls1.readPktSize::3                    0                       # Read request sizes (log2)
system.mem_ctrls1.readPktSize::4                    0                       # Read request sizes (log2)
system.mem_ctrls1.readPktSize::5                    0                       # Read request sizes (log2)
system.mem_ctrls1.readPktSize::6               382956                       # Read request sizes (log2)
system.mem_ctrls1.writePktSize::0                   0                       # Write request sizes (log2)
system.mem_ctrls1.writePktSize::1                   0                       # Write request sizes (log2)
system.mem_ctrls1.writePktSize::2                   0                       # Write request sizes (log2)
system.mem_ctrls1.writePktSize::3                   0                       # Write request sizes (log2)
system.mem_ctrls1.writePktSize::4                   0                       # Write request sizes (log2)
system.mem_ctrls1.writePktSize::5                   0                       # Write request sizes (log2)
system.mem_ctrls1.writePktSize::6              323210                       # Write request sizes (log2)
system.mem_ctrls1.rdQLenPdf::0                 200251                       # What read queue length does an incoming req see
system.mem_ctrls1.rdQLenPdf::1                   1517                       # What read queue length does an incoming req see
system.mem_ctrls1.rdQLenPdf::2                   1112                       # What read queue length does an incoming req see
system.mem_ctrls1.rdQLenPdf::3                   1441                       # What read queue length does an incoming req see
system.mem_ctrls1.rdQLenPdf::4                   1842                       # What read queue length does an incoming req see
system.mem_ctrls1.rdQLenPdf::5                   2193                       # What read queue length does an incoming req see
system.mem_ctrls1.rdQLenPdf::6                   2583                       # What read queue length does an incoming req see
system.mem_ctrls1.rdQLenPdf::7                   2833                       # What read queue length does an incoming req see
system.mem_ctrls1.rdQLenPdf::8                   2949                       # What read queue length does an incoming req see
system.mem_ctrls1.rdQLenPdf::9                   3031                       # What read queue length does an incoming req see
system.mem_ctrls1.rdQLenPdf::10                  3145                       # What read queue length does an incoming req see
system.mem_ctrls1.rdQLenPdf::11                  3211                       # What read queue length does an incoming req see
system.mem_ctrls1.rdQLenPdf::12                  3320                       # What read queue length does an incoming req see
system.mem_ctrls1.rdQLenPdf::13                  3381                       # What read queue length does an incoming req see
system.mem_ctrls1.rdQLenPdf::14                  3526                       # What read queue length does an incoming req see
system.mem_ctrls1.rdQLenPdf::15                  3591                       # What read queue length does an incoming req see
system.mem_ctrls1.rdQLenPdf::16                  3609                       # What read queue length does an incoming req see
system.mem_ctrls1.rdQLenPdf::17                  3734                       # What read queue length does an incoming req see
system.mem_ctrls1.rdQLenPdf::18                  3872                       # What read queue length does an incoming req see
system.mem_ctrls1.rdQLenPdf::19                  3698                       # What read queue length does an incoming req see
system.mem_ctrls1.rdQLenPdf::20                  3730                       # What read queue length does an incoming req see
system.mem_ctrls1.rdQLenPdf::21                  3806                       # What read queue length does an incoming req see
system.mem_ctrls1.rdQLenPdf::22                  3691                       # What read queue length does an incoming req see
system.mem_ctrls1.rdQLenPdf::23                  3694                       # What read queue length does an incoming req see
system.mem_ctrls1.rdQLenPdf::24                  3772                       # What read queue length does an incoming req see
system.mem_ctrls1.rdQLenPdf::25                  3929                       # What read queue length does an incoming req see
system.mem_ctrls1.rdQLenPdf::26                  3985                       # What read queue length does an incoming req see
system.mem_ctrls1.rdQLenPdf::27                  4225                       # What read queue length does an incoming req see
system.mem_ctrls1.rdQLenPdf::28                  4459                       # What read queue length does an incoming req see
system.mem_ctrls1.rdQLenPdf::29                  4658                       # What read queue length does an incoming req see
system.mem_ctrls1.rdQLenPdf::30                  5141                       # What read queue length does an incoming req see
system.mem_ctrls1.rdQLenPdf::31                 83007                       # What read queue length does an incoming req see
system.mem_ctrls1.wrQLenPdf::0                  46955                       # What write queue length does an incoming req see
system.mem_ctrls1.wrQLenPdf::1                  51337                       # What write queue length does an incoming req see
system.mem_ctrls1.wrQLenPdf::2                  53470                       # What write queue length does an incoming req see
system.mem_ctrls1.wrQLenPdf::3                  54251                       # What write queue length does an incoming req see
system.mem_ctrls1.wrQLenPdf::4                  54777                       # What write queue length does an incoming req see
system.mem_ctrls1.wrQLenPdf::5                  17093                       # What write queue length does an incoming req see
system.mem_ctrls1.wrQLenPdf::6                  19603                       # What write queue length does an incoming req see
system.mem_ctrls1.wrQLenPdf::7                  25724                       # What write queue length does an incoming req see
system.mem_ctrls1.bytesPerActivate::samples       198679                       # Bytes accessed per row activation
system.mem_ctrls1.bytesPerActivate::mean   227.463678                       # Bytes accessed per row activation
system.mem_ctrls1.bytesPerActivate::gmean   178.819081                       # Bytes accessed per row activation
system.mem_ctrls1.bytesPerActivate::stdev   162.322595                       # Bytes accessed per row activation
system.mem_ctrls1.bytesPerActivate::0-127        48206     24.26%     24.26% # Bytes accessed per row activation
system.mem_ctrls1.bytesPerActivate::128-255        58698     29.54%     53.81% # Bytes accessed per row activation
system.mem_ctrls1.bytesPerActivate::256-383        70601     35.54%     89.34% # Bytes accessed per row activation
system.mem_ctrls1.bytesPerActivate::384-511         9576      4.82%     94.16% # Bytes accessed per row activation
system.mem_ctrls1.bytesPerActivate::512-639         5173      2.60%     96.77% # Bytes accessed per row activation
system.mem_ctrls1.bytesPerActivate::640-767         2578      1.30%     98.06% # Bytes accessed per row activation
system.mem_ctrls1.bytesPerActivate::768-895         1411      0.71%     98.77% # Bytes accessed per row activation
system.mem_ctrls1.bytesPerActivate::896-1023          918      0.46%     99.24% # Bytes accessed per row activation
system.mem_ctrls1.bytesPerActivate::1024-1151         1518      0.76%    100.00% # Bytes accessed per row activation
system.mem_ctrls1.bytesPerActivate::total       198679                       # Bytes accessed per row activation
system.mem_ctrls1.rdPerTurnAround::samples        48646                       # Reads before turning the bus around for writes
system.mem_ctrls1.rdPerTurnAround::mean      7.871788                       # Reads before turning the bus around for writes
system.mem_ctrls1.rdPerTurnAround::stdev    15.578045                       # Reads before turning the bus around for writes
system.mem_ctrls1.rdPerTurnAround::0-127        48640     99.99%     99.99% # Reads before turning the bus around for writes
system.mem_ctrls1.rdPerTurnAround::128-255            4      0.01%    100.00% # Reads before turning the bus around for writes
system.mem_ctrls1.rdPerTurnAround::1152-1279            1      0.00%    100.00% # Reads before turning the bus around for writes
system.mem_ctrls1.rdPerTurnAround::2816-2943            1      0.00%    100.00% # Reads before turning the bus around for writes
system.mem_ctrls1.rdPerTurnAround::total        48646                       # Reads before turning the bus around for writes
system.mem_ctrls1.wrPerTurnAround::samples        48646                       # Writes before turning the bus around for reads
system.mem_ctrls1.wrPerTurnAround::mean      6.644123                       # Writes before turning the bus around for reads
system.mem_ctrls1.wrPerTurnAround::gmean     6.068979                       # Writes before turning the bus around for reads
system.mem_ctrls1.wrPerTurnAround::stdev     3.403272                       # Writes before turning the bus around for reads
system.mem_ctrls1.wrPerTurnAround::4-7          38648     79.45%     79.45% # Writes before turning the bus around for reads
system.mem_ctrls1.wrPerTurnAround::8-11          3259      6.70%     86.15% # Writes before turning the bus around for reads
system.mem_ctrls1.wrPerTurnAround::12-15         4169      8.57%     94.72% # Writes before turning the bus around for reads
system.mem_ctrls1.wrPerTurnAround::16-19         2570      5.28%    100.00% # Writes before turning the bus around for reads
system.mem_ctrls1.wrPerTurnAround::total        48646                       # Writes before turning the bus around for reads
system.mem_ctrls1.totQLat                 57628725150                       # Total ticks spent queuing
system.mem_ctrls1.totMemAccLat            64808775150                       # Total ticks spent from burst creation until serviced by the DRAM
system.mem_ctrls1.totBusLat                1914680000                       # Total ticks spent in databus transfers
system.mem_ctrls1.avgQLat                   150491.79                       # Average queueing delay per DRAM burst
system.mem_ctrls1.avgBusLat                   5000.00                       # Average bus latency per DRAM burst
system.mem_ctrls1.avgMemAccLat              169241.79                       # Average memory access latency per DRAM burst
system.mem_ctrls1.avgRdBW                      159.23                       # Average DRAM read bandwidth in MiByte/s
system.mem_ctrls1.avgWrBW                      134.39                       # Average achieved write bandwidth in MiByte/s
system.mem_ctrls1.avgRdBWSys                   159.24                       # Average system read bandwidth in MiByte/s
system.mem_ctrls1.avgWrBWSys                   134.39                       # Average system write bandwidth in MiByte/s
system.mem_ctrls1.peakBW                     12800.00                       # Theoretical peak bandwidth in MiByte/s
system.mem_ctrls1.busUtil                        2.29                       # Data bus utilization in percentage
system.mem_ctrls1.busUtilRead                    1.24                       # Data bus utilization in percentage for reads
system.mem_ctrls1.busUtilWrite                   1.05                       # Data bus utilization in percentage for writes
system.mem_ctrls1.avgRdQLen                      1.38                       # Average read queue length when enqueuing
system.mem_ctrls1.avgWrQLen                      2.99                       # Average write queue length when enqueuing
system.mem_ctrls1.readRowHits                  287032                       # Number of row buffer hits during reads
system.mem_ctrls1.writeRowHits                 220427                       # Number of row buffer hits during writes
system.mem_ctrls1.readRowHitRate                74.96                       # Row buffer hit rate for reads
system.mem_ctrls1.writeRowHitRate               68.20                       # Row buffer hit rate for writes
system.mem_ctrls1.avgGap                    217958.64                       # Average gap between requests
system.mem_ctrls1.pageHitRate                   71.86                       # Row buffer hit rate, read and write combined
system.mem_ctrls1.memoryStateTime::IDLE   27042026750                       # Time in different power states
system.mem_ctrls1.memoryStateTime::REF     5139420000                       # Time in different power states
system.mem_ctrls1.memoryStateTime::PRE_PDN            0                       # Time in different power states
system.mem_ctrls1.memoryStateTime::ACT   121729630750                       # Time in different power states
system.mem_ctrls1.memoryStateTime::ACT_PDN            0                       # Time in different power states
system.mem_ctrls1.actEnergy::0              756362880                       # Energy for activate commands per rank (pJ)
system.mem_ctrls1.actEnergy::1              745559640                       # Energy for activate commands per rank (pJ)
system.mem_ctrls1.preEnergy::0              412698000                       # Energy for precharge commands per rank (pJ)
system.mem_ctrls1.preEnergy::1              406803375                       # Energy for precharge commands per rank (pJ)
system.mem_ctrls1.readEnergy::0            1500626400                       # Energy for read commands per rank (pJ)
system.mem_ctrls1.readEnergy::1            1486071600                       # Energy for read commands per rank (pJ)
system.mem_ctrls1.writeEnergy::0           1049358240                       # Energy for write commands per rank (pJ)
system.mem_ctrls1.writeEnergy::1           1044906480                       # Energy for write commands per rank (pJ)
system.mem_ctrls1.refreshEnergy::0        10052705520                       # Energy for refresh commands per rank (pJ)
system.mem_ctrls1.refreshEnergy::1        10052705520                       # Energy for refresh commands per rank (pJ)
system.mem_ctrls1.actBackEnergy::0        60149404755                       # Energy for active background per rank (pJ)
system.mem_ctrls1.actBackEnergy::1        59673544245                       # Energy for active background per rank (pJ)
system.mem_ctrls1.preBackEnergy::0        39584002500                       # Energy for precharge background per rank (pJ)
system.mem_ctrls1.preBackEnergy::1        40001424000                       # Energy for precharge background per rank (pJ)
system.mem_ctrls1.totalEnergy::0         113505158295                       # Total energy per rank (pJ)
system.mem_ctrls1.totalEnergy::1         113411014860                       # Total energy per rank (pJ)
system.mem_ctrls1.averagePower::0          737.472379                       # Core power per rank (mW)
system.mem_ctrls1.averagePower::1          736.860704                       # Core power per rank (mW)
system.mem_ctrls2.bytes_read::ruby.dir_cntrl2     24509248                       # Number of bytes read from this memory
system.mem_ctrls2.bytes_read::total          24509248                       # Number of bytes read from this memory
system.mem_ctrls2.bytes_written::ruby.dir_cntrl2     20686976                       # Number of bytes written to this memory
system.mem_ctrls2.bytes_written::total       20686976                       # Number of bytes written to this memory
system.mem_ctrls2.num_reads::ruby.dir_cntrl2       382957                       # Number of read requests responded to by this memory
system.mem_ctrls2.num_reads::total             382957                       # Number of read requests responded to by this memory
system.mem_ctrls2.num_writes::ruby.dir_cntrl2       323234                       # Number of write requests responded to by this memory
system.mem_ctrls2.num_writes::total            323234                       # Number of write requests responded to by this memory
system.mem_ctrls2.bw_read::ruby.dir_cntrl2    159238089                       # Total read bandwidth from this memory (bytes/s)
system.mem_ctrls2.bw_read::total            159238089                       # Total read bandwidth from this memory (bytes/s)
system.mem_ctrls2.bw_write::ruby.dir_cntrl2    134404553                       # Write bandwidth from this memory (bytes/s)
system.mem_ctrls2.bw_write::total           134404553                       # Write bandwidth from this memory (bytes/s)
system.mem_ctrls2.bw_total::ruby.dir_cntrl2    293642641                       # Total bandwidth to/from this memory (bytes/s)
system.mem_ctrls2.bw_total::total           293642641                       # Total bandwidth to/from this memory (bytes/s)
system.mem_ctrls2.readReqs                     382957                       # Number of read requests accepted
system.mem_ctrls2.writeReqs                    323234                       # Number of write requests accepted
system.mem_ctrls2.readBursts                   382957                       # Number of DRAM read bursts, including those serviced by the write queue
system.mem_ctrls2.writeBursts                  323234                       # Number of DRAM write bursts, including those merged in the write queue
system.mem_ctrls2.bytesReadDRAM              24508096                       # Total number of bytes read from DRAM
system.mem_ctrls2.bytesReadWrQ                   1152                       # Total number of bytes read from write queue
system.mem_ctrls2.bytesWritten               20686976                       # Total number of bytes written to DRAM
system.mem_ctrls2.bytesReadSys               24509248                       # Total read bytes from the system interface side
system.mem_ctrls2.bytesWrittenSys            20686976                       # Total written bytes from the system interface side
system.mem_ctrls2.servicedByWrQ                    18                       # Number of DRAM read bursts serviced by the write queue
system.mem_ctrls2.mergedWrBursts                    0                       # Number of DRAM write bursts merged with an existing one
system.mem_ctrls2.neitherReadNorWriteReqs            0                       # Number of requests that are neither read nor write
system.mem_ctrls2.perBankRdBursts::0            23640                       # Per bank write bursts
system.mem_ctrls2.perBankRdBursts::1            24302                       # Per bank write bursts
system.mem_ctrls2.perBankRdBursts::2            23934                       # Per bank write bursts
system.mem_ctrls2.perBankRdBursts::3            24276                       # Per bank write bursts
system.mem_ctrls2.perBankRdBursts::4            23867                       # Per bank write bursts
system.mem_ctrls2.perBankRdBursts::5            24155                       # Per bank write bursts
system.mem_ctrls2.perBankRdBursts::6            24226                       # Per bank write bursts
system.mem_ctrls2.perBankRdBursts::7            24029                       # Per bank write bursts
system.mem_ctrls2.perBankRdBursts::8            23897                       # Per bank write bursts
system.mem_ctrls2.perBankRdBursts::9            24047                       # Per bank write bursts
system.mem_ctrls2.perBankRdBursts::10           23814                       # Per bank write bursts
system.mem_ctrls2.perBankRdBursts::11           24325                       # Per bank write bursts
system.mem_ctrls2.perBankRdBursts::12           23625                       # Per bank write bursts
system.mem_ctrls2.perBankRdBursts::13           23435                       # Per bank write bursts
system.mem_ctrls2.perBankRdBursts::14           23589                       # Per bank write bursts
system.mem_ctrls2.perBankRdBursts::15           23778                       # Per bank write bursts
system.mem_ctrls2.perBankWrBursts::0            20224                       # Per bank write bursts
system.mem_ctrls2.perBankWrBursts::1            20141                       # Per bank write bursts
system.mem_ctrls2.perBankWrBursts::2            20140                       # Per bank write bursts
system.mem_ctrls2.perBankWrBursts::3            20418                       # Per bank write bursts
system.mem_ctrls2.perBankWrBursts::4            20043                       # Per bank write bursts
system.mem_ctrls2.perBankWrBursts::5            20326                       # Per bank write bursts
system.mem_ctrls2.perBankWrBursts::6            20369                       # Per bank write bursts
system.mem_ctrls2.perBankWrBursts::7            20291                       # Per bank write bursts
system.mem_ctrls2.perBankWrBursts::8            20402                       # Per bank write bursts
system.mem_ctrls2.perBankWrBursts::9            20194                       # Per bank write bursts
system.mem_ctrls2.perBankWrBursts::10           20113                       # Per bank write bursts
system.mem_ctrls2.perBankWrBursts::11           20171                       # Per bank write bursts
system.mem_ctrls2.perBankWrBursts::12           19943                       # Per bank write bursts
system.mem_ctrls2.perBankWrBursts::13           20191                       # Per bank write bursts
system.mem_ctrls2.perBankWrBursts::14           20139                       # Per bank write bursts
system.mem_ctrls2.perBankWrBursts::15           20129                       # Per bank write bursts
system.mem_ctrls2.numRdRetry                    73006                       # Number of times read queue was full causing retry
system.mem_ctrls2.numWrRetry                    10831                       # Number of times write queue was full causing retry
system.mem_ctrls2.totGap                 153914911000                       # Total gap between requests
system.mem_ctrls2.readPktSize::0                    0                       # Read request sizes (log2)
system.mem_ctrls2.readPktSize::1                    0                       # Read request sizes (log2)
system.mem_ctrls2.readPktSize::2                    0                       # Read request sizes (log2)
system.mem_ctrls2.readPktSize::3                    0                       # Read request sizes (log2)
system.mem_ctrls2.readPktSize::4                    0                       # Read request sizes (log2)
system.mem_ctrls2.readPktSize::5                    0                       # Read request sizes (log2)
system.mem_ctrls2.readPktSize::6               382957                       # Read request sizes (log2)
system.mem_ctrls2.writePktSize::0                   0                       # Write request sizes (log2)
system.mem_ctrls2.writePktSize::1                   0                       # Write request sizes (log2)
system.mem_ctrls2.writePktSize::2                   0                       # Write request sizes (log2)
system.mem_ctrls2.writePktSize::3                   0                       # Write request sizes (log2)
system.mem_ctrls2.writePktSize::4                   0                       # Write request sizes (log2)
system.mem_ctrls2.writePktSize::5                   0                       # Write request sizes (log2)
system.mem_ctrls2.writePktSize::6              323234                       # Write request sizes (log2)
system.mem_ctrls2.rdQLenPdf::0                 200639                       # What read queue length does an incoming req see
system.mem_ctrls2.rdQLenPdf::1                   1410                       # What read queue length does an incoming req see
system.mem_ctrls2.rdQLenPdf::2                   1231                       # What read queue length does an incoming req see
system.mem_ctrls2.rdQLenPdf::3                   1609                       # What read queue length does an incoming req see
system.mem_ctrls2.rdQLenPdf::4                   2021                       # What read queue length does an incoming req see
system.mem_ctrls2.rdQLenPdf::5                   2330                       # What read queue length does an incoming req see
system.mem_ctrls2.rdQLenPdf::6                   2771                       # What read queue length does an incoming req see
system.mem_ctrls2.rdQLenPdf::7                   2935                       # What read queue length does an incoming req see
system.mem_ctrls2.rdQLenPdf::8                   3248                       # What read queue length does an incoming req see
system.mem_ctrls2.rdQLenPdf::9                   3301                       # What read queue length does an incoming req see
system.mem_ctrls2.rdQLenPdf::10                  3284                       # What read queue length does an incoming req see
system.mem_ctrls2.rdQLenPdf::11                  3403                       # What read queue length does an incoming req see
system.mem_ctrls2.rdQLenPdf::12                  3441                       # What read queue length does an incoming req see
system.mem_ctrls2.rdQLenPdf::13                  3476                       # What read queue length does an incoming req see
system.mem_ctrls2.rdQLenPdf::14                  3681                       # What read queue length does an incoming req see
system.mem_ctrls2.rdQLenPdf::15                  3743                       # What read queue length does an incoming req see
system.mem_ctrls2.rdQLenPdf::16                  3803                       # What read queue length does an incoming req see
system.mem_ctrls2.rdQLenPdf::17                  3711                       # What read queue length does an incoming req see
system.mem_ctrls2.rdQLenPdf::18                  3774                       # What read queue length does an incoming req see
system.mem_ctrls2.rdQLenPdf::19                  3858                       # What read queue length does an incoming req see
system.mem_ctrls2.rdQLenPdf::20                  3986                       # What read queue length does an incoming req see
system.mem_ctrls2.rdQLenPdf::21                  3860                       # What read queue length does an incoming req see
system.mem_ctrls2.rdQLenPdf::22                  3841                       # What read queue length does an incoming req see
system.mem_ctrls2.rdQLenPdf::23                  3778                       # What read queue length does an incoming req see
system.mem_ctrls2.rdQLenPdf::24                  3826                       # What read queue length does an incoming req see
system.mem_ctrls2.rdQLenPdf::25                  3993                       # What read queue length does an incoming req see
system.mem_ctrls2.rdQLenPdf::26                  4081                       # What read queue length does an incoming req see
system.mem_ctrls2.rdQLenPdf::27                  4277                       # What read queue length does an incoming req see
system.mem_ctrls2.rdQLenPdf::28                  4524                       # What read queue length does an incoming req see
system.mem_ctrls2.rdQLenPdf::29                  4810                       # What read queue length does an incoming req see
system.mem_ctrls2.rdQLenPdf::30                  5074                       # What read queue length does an incoming req see
system.mem_ctrls2.rdQLenPdf::31                 79220                       # What read queue length does an incoming req see
system.mem_ctrls2.wrQLenPdf::0                  46960                       # What write queue length does an incoming req see
system.mem_ctrls2.wrQLenPdf::1                  51345                       # What write queue length does an incoming req see
system.mem_ctrls2.wrQLenPdf::2                  53563                       # What write queue length does an incoming req see
system.mem_ctrls2.wrQLenPdf::3                  54414                       # What write queue length does an incoming req see
system.mem_ctrls2.wrQLenPdf::4                  54709                       # What write queue length does an incoming req see
system.mem_ctrls2.wrQLenPdf::5                  17024                       # What write queue length does an incoming req see
system.mem_ctrls2.wrQLenPdf::6                  19401                       # What write queue length does an incoming req see
system.mem_ctrls2.wrQLenPdf::7                  25818                       # What write queue length does an incoming req see
system.mem_ctrls2.bytesPerActivate::samples       196514                       # Bytes accessed per row activation
system.mem_ctrls2.bytesPerActivate::mean   229.980398                       # Bytes accessed per row activation
system.mem_ctrls2.bytesPerActivate::gmean   181.030076                       # Bytes accessed per row activation
system.mem_ctrls2.bytesPerActivate::stdev   163.489202                       # Bytes accessed per row activation
system.mem_ctrls2.bytesPerActivate::0-127        46552     23.69%     23.69% # Bytes accessed per row activation
system.mem_ctrls2.bytesPerActivate::128-255        57189     29.10%     52.79% # Bytes accessed per row activation
system.mem_ctrls2.bytesPerActivate::256-383        71281     36.27%     89.06% # Bytes accessed per row activation
system.mem_ctrls2.bytesPerActivate::384-511         9702      4.94%     94.00% # Bytes accessed per row activation
system.mem_ctrls2.bytesPerActivate::512-639         5219      2.66%     96.66% # Bytes accessed per row activation
system.mem_ctrls2.bytesPerActivate::640-767         2603      1.32%     97.98% # Bytes accessed per row activation
system.mem_ctrls2.bytesPerActivate::768-895         1470      0.75%     98.73% # Bytes accessed per row activation
system.mem_ctrls2.bytesPerActivate::896-1023          895      0.46%     99.18% # Bytes accessed per row activation
system.mem_ctrls2.bytesPerActivate::1024-1151         1603      0.82%    100.00% # Bytes accessed per row activation
system.mem_ctrls2.bytesPerActivate::total       196514                       # Bytes accessed per row activation
system.mem_ctrls2.rdPerTurnAround::samples        48700                       # Reads before turning the bus around for writes
system.mem_ctrls2.rdPerTurnAround::mean      7.863203                       # Reads before turning the bus around for writes
system.mem_ctrls2.rdPerTurnAround::stdev    15.632491                       # Reads before turning the bus around for writes
system.mem_ctrls2.rdPerTurnAround::0-127        48694     99.99%     99.99% # Reads before turning the bus around for writes
system.mem_ctrls2.rdPerTurnAround::128-255            4      0.01%    100.00% # Reads before turning the bus around for writes
system.mem_ctrls2.rdPerTurnAround::1152-1279            1      0.00%    100.00% # Reads before turning the bus around for writes
system.mem_ctrls2.rdPerTurnAround::2816-2943            1      0.00%    100.00% # Reads before turning the bus around for writes
system.mem_ctrls2.rdPerTurnAround::total        48700                       # Reads before turning the bus around for writes
system.mem_ctrls2.wrPerTurnAround::samples        48700                       # Writes before turning the bus around for reads
system.mem_ctrls2.wrPerTurnAround::mean      6.637248                       # Writes before turning the bus around for reads
system.mem_ctrls2.wrPerTurnAround::gmean     6.064098                       # Writes before turning the bus around for reads
system.mem_ctrls2.wrPerTurnAround::stdev     3.399708                       # Writes before turning the bus around for reads
system.mem_ctrls2.wrPerTurnAround::4-7          38730     79.53%     79.53% # Writes before turning the bus around for reads
system.mem_ctrls2.wrPerTurnAround::8-11          3302      6.78%     86.31% # Writes before turning the bus around for reads
system.mem_ctrls2.wrPerTurnAround::12-15         4005      8.22%     94.53% # Writes before turning the bus around for reads
system.mem_ctrls2.wrPerTurnAround::16-19         2663      5.47%    100.00% # Writes before turning the bus around for reads
system.mem_ctrls2.wrPerTurnAround::total        48700                       # Writes before turning the bus around for reads
system.mem_ctrls2.totQLat                 56619593479                       # Total ticks spent queuing
system.mem_ctrls2.totMemAccLat            63799699729                       # Total ticks spent from burst creation until serviced by the DRAM
system.mem_ctrls2.totBusLat                1914695000                       # Total ticks spent in databus transfers
system.mem_ctrls2.avgQLat                   147855.39                       # Average queueing delay per DRAM burst
system.mem_ctrls2.avgBusLat                   5000.00                       # Average bus latency per DRAM burst
system.mem_ctrls2.avgMemAccLat              166605.39                       # Average memory access latency per DRAM burst
system.mem_ctrls2.avgRdBW                      159.23                       # Average DRAM read bandwidth in MiByte/s
system.mem_ctrls2.avgWrBW                      134.40                       # Average achieved write bandwidth in MiByte/s
system.mem_ctrls2.avgRdBWSys                   159.24                       # Average system read bandwidth in MiByte/s
system.mem_ctrls2.avgWrBWSys                   134.40                       # Average system write bandwidth in MiByte/s
system.mem_ctrls2.peakBW                     12800.00                       # Theoretical peak bandwidth in MiByte/s
system.mem_ctrls2.busUtil                        2.29                       # Data bus utilization in percentage
system.mem_ctrls2.busUtilRead                    1.24                       # Data bus utilization in percentage for reads
system.mem_ctrls2.busUtilWrite                   1.05                       # Data bus utilization in percentage for writes
system.mem_ctrls2.avgRdQLen                      1.37                       # Average read queue length when enqueuing
system.mem_ctrls2.avgWrQLen                      3.01                       # Average write queue length when enqueuing
system.mem_ctrls2.readRowHits                  287574                       # Number of row buffer hits during reads
system.mem_ctrls2.writeRowHits                 222075                       # Number of row buffer hits during writes
system.mem_ctrls2.readRowHitRate                75.10                       # Row buffer hit rate for reads
system.mem_ctrls2.writeRowHitRate               68.70                       # Row buffer hit rate for writes
system.mem_ctrls2.avgGap                    217950.82                       # Average gap between requests
system.mem_ctrls2.pageHitRate                   72.17                       # Row buffer hit rate, read and write combined
system.mem_ctrls2.memoryStateTime::IDLE   27138611750                       # Time in different power states
system.mem_ctrls2.memoryStateTime::REF     5139420000                       # Time in different power states
system.mem_ctrls2.memoryStateTime::PRE_PDN            0                       # Time in different power states
system.mem_ctrls2.memoryStateTime::ACT   121633045750                       # Time in different power states
system.mem_ctrls2.memoryStateTime::ACT_PDN            0                       # Time in different power states
system.mem_ctrls2.actEnergy::0              749233800                       # Energy for activate commands per rank (pJ)
system.mem_ctrls2.actEnergy::1              736306200                       # Energy for activate commands per rank (pJ)
system.mem_ctrls2.preEnergy::0              408808125                       # Energy for precharge commands per rank (pJ)
system.mem_ctrls2.preEnergy::1              401754375                       # Energy for precharge commands per rank (pJ)
system.mem_ctrls2.readEnergy::0            1500876000                       # Energy for read commands per rank (pJ)
system.mem_ctrls2.readEnergy::1            1485876600                       # Energy for read commands per rank (pJ)
system.mem_ctrls2.writeEnergy::0           1049364720                       # Energy for write commands per rank (pJ)
system.mem_ctrls2.writeEnergy::1           1045062000                       # Energy for write commands per rank (pJ)
system.mem_ctrls2.refreshEnergy::0        10052705520                       # Energy for refresh commands per rank (pJ)
system.mem_ctrls2.refreshEnergy::1        10052705520                       # Energy for refresh commands per rank (pJ)
system.mem_ctrls2.actBackEnergy::0        59727219435                       # Energy for active background per rank (pJ)
system.mem_ctrls2.actBackEnergy::1        59263079265                       # Energy for active background per rank (pJ)
system.mem_ctrls2.preBackEnergy::0        39954340500                       # Energy for precharge background per rank (pJ)
system.mem_ctrls2.preBackEnergy::1        40361481000                       # Energy for precharge background per rank (pJ)
system.mem_ctrls2.totalEnergy::0         113442548100                       # Total energy per rank (pJ)
system.mem_ctrls2.totalEnergy::1         113346264960                       # Total energy per rank (pJ)
system.mem_ctrls2.averagePower::0          737.065584                       # Core power per rank (mW)
system.mem_ctrls2.averagePower::1          736.440008                       # Core power per rank (mW)
system.mem_ctrls3.bytes_read::ruby.dir_cntrl3     24488960                       # Number of bytes read from this memory
system.mem_ctrls3.bytes_read::total          24488960                       # Number of bytes read from this memory
system.mem_ctrls3.bytes_written::ruby.dir_cntrl3     20684480                       # Number of bytes written to this memory
system.mem_ctrls3.bytes_written::total       20684480                       # Number of bytes written to this memory
system.mem_ctrls3.num_reads::ruby.dir_cntrl3       382640                       # Number of read requests responded to by this memory
system.mem_ctrls3.num_reads::total             382640                       # Number of read requests responded to by this memory
system.mem_ctrls3.num_writes::ruby.dir_cntrl3       323195                       # Number of write requests responded to by this memory
system.mem_ctrls3.num_writes::total            323195                       # Number of write requests responded to by this memory
system.mem_ctrls3.bw_read::ruby.dir_cntrl3    159106276                       # Total read bandwidth from this memory (bytes/s)
system.mem_ctrls3.bw_read::total            159106276                       # Total read bandwidth from this memory (bytes/s)
system.mem_ctrls3.bw_write::ruby.dir_cntrl3    134388336                       # Write bandwidth from this memory (bytes/s)
system.mem_ctrls3.bw_write::total           134388336                       # Write bandwidth from this memory (bytes/s)
system.mem_ctrls3.bw_total::ruby.dir_cntrl3    293494612                       # Total bandwidth to/from this memory (bytes/s)
system.mem_ctrls3.bw_total::total           293494612                       # Total bandwidth to/from this memory (bytes/s)
system.mem_ctrls3.readReqs                     382640                       # Number of read requests accepted
system.mem_ctrls3.writeReqs                    323195                       # Number of write requests accepted
system.mem_ctrls3.readBursts                   382640                       # Number of DRAM read bursts, including those serviced by the write queue
system.mem_ctrls3.writeBursts                  323195                       # Number of DRAM write bursts, including those merged in the write queue
system.mem_ctrls3.bytesReadDRAM              24488320                       # Total number of bytes read from DRAM
system.mem_ctrls3.bytesReadWrQ                    640                       # Total number of bytes read from write queue
system.mem_ctrls3.bytesWritten               20684224                       # Total number of bytes written to DRAM
system.mem_ctrls3.bytesReadSys               24488960                       # Total read bytes from the system interface side
system.mem_ctrls3.bytesWrittenSys            20684480                       # Total written bytes from the system interface side
system.mem_ctrls3.servicedByWrQ                    10                       # Number of DRAM read bursts serviced by the write queue
system.mem_ctrls3.mergedWrBursts                    0                       # Number of DRAM write bursts merged with an existing one
system.mem_ctrls3.neitherReadNorWriteReqs            0                       # Number of requests that are neither read nor write
system.mem_ctrls3.perBankRdBursts::0            23629                       # Per bank write bursts
system.mem_ctrls3.perBankRdBursts::1            24296                       # Per bank write bursts
system.mem_ctrls3.perBankRdBursts::2            23812                       # Per bank write bursts
system.mem_ctrls3.perBankRdBursts::3            24239                       # Per bank write bursts
system.mem_ctrls3.perBankRdBursts::4            23815                       # Per bank write bursts
system.mem_ctrls3.perBankRdBursts::5            24163                       # Per bank write bursts
system.mem_ctrls3.perBankRdBursts::6            24223                       # Per bank write bursts
system.mem_ctrls3.perBankRdBursts::7            24030                       # Per bank write bursts
system.mem_ctrls3.perBankRdBursts::8            23882                       # Per bank write bursts
system.mem_ctrls3.perBankRdBursts::9            24025                       # Per bank write bursts
system.mem_ctrls3.perBankRdBursts::10           23881                       # Per bank write bursts
system.mem_ctrls3.perBankRdBursts::11           24274                       # Per bank write bursts
system.mem_ctrls3.perBankRdBursts::12           23558                       # Per bank write bursts
system.mem_ctrls3.perBankRdBursts::13           23446                       # Per bank write bursts
system.mem_ctrls3.perBankRdBursts::14           23607                       # Per bank write bursts
system.mem_ctrls3.perBankRdBursts::15           23750                       # Per bank write bursts
system.mem_ctrls3.perBankWrBursts::0            20225                       # Per bank write bursts
system.mem_ctrls3.perBankWrBursts::1            20137                       # Per bank write bursts
system.mem_ctrls3.perBankWrBursts::2            20144                       # Per bank write bursts
system.mem_ctrls3.perBankWrBursts::3            20405                       # Per bank write bursts
system.mem_ctrls3.perBankWrBursts::4            20036                       # Per bank write bursts
system.mem_ctrls3.perBankWrBursts::5            20326                       # Per bank write bursts
system.mem_ctrls3.perBankWrBursts::6            20371                       # Per bank write bursts
system.mem_ctrls3.perBankWrBursts::7            20279                       # Per bank write bursts
system.mem_ctrls3.perBankWrBursts::8            20398                       # Per bank write bursts
system.mem_ctrls3.perBankWrBursts::9            20193                       # Per bank write bursts
system.mem_ctrls3.perBankWrBursts::10           20111                       # Per bank write bursts
system.mem_ctrls3.perBankWrBursts::11           20183                       # Per bank write bursts
system.mem_ctrls3.perBankWrBursts::12           19941                       # Per bank write bursts
system.mem_ctrls3.perBankWrBursts::13           20197                       # Per bank write bursts
system.mem_ctrls3.perBankWrBursts::14           20138                       # Per bank write bursts
system.mem_ctrls3.perBankWrBursts::15           20107                       # Per bank write bursts
system.mem_ctrls3.numRdRetry                    71981                       # Number of times read queue was full causing retry
system.mem_ctrls3.numWrRetry                    10437                       # Number of times write queue was full causing retry
system.mem_ctrls3.totGap                 153914615500                       # Total gap between requests
system.mem_ctrls3.readPktSize::0                    0                       # Read request sizes (log2)
system.mem_ctrls3.readPktSize::1                    0                       # Read request sizes (log2)
system.mem_ctrls3.readPktSize::2                    0                       # Read request sizes (log2)
system.mem_ctrls3.readPktSize::3                    0                       # Read request sizes (log2)
system.mem_ctrls3.readPktSize::4                    0                       # Read request sizes (log2)
system.mem_ctrls3.readPktSize::5                    0                       # Read request sizes (log2)
system.mem_ctrls3.readPktSize::6               382640                       # Read request sizes (log2)
system.mem_ctrls3.writePktSize::0                   0                       # Write request sizes (log2)
system.mem_ctrls3.writePktSize::1                   0                       # Write request sizes (log2)
system.mem_ctrls3.writePktSize::2                   0                       # Write request sizes (log2)
system.mem_ctrls3.writePktSize::3                   0                       # Write request sizes (log2)
system.mem_ctrls3.writePktSize::4                   0                       # Write request sizes (log2)
system.mem_ctrls3.writePktSize::5                   0                       # Write request sizes (log2)
system.mem_ctrls3.writePktSize::6              323195                       # Write request sizes (log2)
system.mem_ctrls3.rdQLenPdf::0                 200179                       # What read queue length does an incoming req see
system.mem_ctrls3.rdQLenPdf::1                   1483                       # What read queue length does an incoming req see
system.mem_ctrls3.rdQLenPdf::2                   1345                       # What read queue length does an incoming req see
system.mem_ctrls3.rdQLenPdf::3                   1737                       # What read queue length does an incoming req see
system.mem_ctrls3.rdQLenPdf::4                   2062                       # What read queue length does an incoming req see
system.mem_ctrls3.rdQLenPdf::5                   2440                       # What read queue length does an incoming req see
system.mem_ctrls3.rdQLenPdf::6                   2798                       # What read queue length does an incoming req see
system.mem_ctrls3.rdQLenPdf::7                   3073                       # What read queue length does an incoming req see
system.mem_ctrls3.rdQLenPdf::8                   3070                       # What read queue length does an incoming req see
system.mem_ctrls3.rdQLenPdf::9                   3307                       # What read queue length does an incoming req see
system.mem_ctrls3.rdQLenPdf::10                  3232                       # What read queue length does an incoming req see
system.mem_ctrls3.rdQLenPdf::11                  3325                       # What read queue length does an incoming req see
system.mem_ctrls3.rdQLenPdf::12                  3402                       # What read queue length does an incoming req see
system.mem_ctrls3.rdQLenPdf::13                  3501                       # What read queue length does an incoming req see
system.mem_ctrls3.rdQLenPdf::14                  3643                       # What read queue length does an incoming req see
system.mem_ctrls3.rdQLenPdf::15                  3637                       # What read queue length does an incoming req see
system.mem_ctrls3.rdQLenPdf::16                  3696                       # What read queue length does an incoming req see
system.mem_ctrls3.rdQLenPdf::17                  3776                       # What read queue length does an incoming req see
system.mem_ctrls3.rdQLenPdf::18                  3891                       # What read queue length does an incoming req see
system.mem_ctrls3.rdQLenPdf::19                  3974                       # What read queue length does an incoming req see
system.mem_ctrls3.rdQLenPdf::20                  4017                       # What read queue length does an incoming req see
system.mem_ctrls3.rdQLenPdf::21                  4015                       # What read queue length does an incoming req see
system.mem_ctrls3.rdQLenPdf::22                  4100                       # What read queue length does an incoming req see
system.mem_ctrls3.rdQLenPdf::23                  4117                       # What read queue length does an incoming req see
system.mem_ctrls3.rdQLenPdf::24                  3970                       # What read queue length does an incoming req see
[...]
system.ruby.L2Cache_Controller.ISS.L1_GETS::total            1                      
system.ruby.L2Cache_Controller.ISS.Mem_Data |       18678      7.92%      7.92% |        7080      3.00%     10.93% |        7082      3.00%     13.93% |        7031      2.98%     16.92% |        7005      2.97%     19.89% |        6990      2.97%     22.85% |        6998      2.97%     25.82% |        6991      2.97%     28.79% |        7033      2.98%     31.77% |        7031      2.98%     34.76% |        7063      3.00%     37.75% |        6988      2.96%     40.72% |        6993      2.97%     43.68% |        6994      2.97%     46.65% |        6994      2.97%     49.62% |        6958      2.95%     52.57% |        6996      2.97%     55.54% |        6972      2.96%     58.50% |        7004      2.97%     61.47% |        6983      2.96%     64.43% |        6980      2.96%     67.39% |        6968      2.96%     70.35% |        6991      2.97%     73.31% |        6983      2.96%     76.28% |        7002      2.97%     79.25% |        7004      2.97%     82.22% |        6983      2.96%     85.18% |        6961      2.95%     88.14% |        7004      2.97%     91.11% |        6985      2.96%     94.07% |        6960      2.95%     97.02% |        7017      2.98%    100.00%
system.ruby.L2Cache_Controller.ISS.Mem_Data::total       235702                      
system.ruby.L2Cache_Controller.IS.Mem_Data |         543      3.27%      3.27% |         470      2.83%      6.10% |         465      2.80%      8.89% |         465      2.80%     11.69% |         512      3.08%     14.77% |         467      2.81%     17.58% |         504      3.03%     20.62% |         529      3.18%     23.80% |         547      3.29%     27.09% |         487      2.93%     30.02% |         533      3.21%     33.23% |         566      3.41%     36.64% |         618      3.72%     40.36% |         561      3.38%     43.73% |         579      3.48%     47.22% |         523      3.15%     50.36% |         533      3.21%     53.57% |         569      3.42%     57.00% |         563      3.39%     60.38% |         509      3.06%     63.45% |         503      3.03%     66.47% |         520      3.13%     69.60% |         480      2.89%     72.49% |         468      2.82%     75.31% |         546      3.29%     78.59% |         592      3.56%     82.16% |         533      3.21%     85.36% |         479      2.88%     88.25% |         489      2.94%     91.19% |         510      3.07%     94.26% |         489      2.94%     97.20% |         465      2.80%    100.00%
system.ruby.L2Cache_Controller.IS.Mem_Data::total        16617                      
system.ruby.L2Cache_Controller.IM.L1_GETX |           1    100.00%    100.00% |           0      0.00%    100.00% |           0      0.00%    100.00% |           0      0.00%    100.00% |           0      0.00%    100.00% |           0      0.00%    100.00% |           0      0.00%    100.00% |           0      0.00%    100.00% |           0      0.00%    100.00% |           0      0.00%    100.00% |           0      0.00%    100.00% |           0      0.00%    100.00% |           0      0.00%    100.00% |           0      0.00%    100.00% |           0      0.00%    100.00% |           0      0.00%    100.00% |           0      0.00%    100.00% |           0      0.00%    100.00% |           0      0.00%    100.00% |           0      0.00%    100.00% |           0      0.00%    100.00% |           0      0.00%    100.00% |           0      0.00%    100.00% |           0      0.00%    100.00% |           0      0.00%    100.00% |           0      0.00%    100.00% |           0      0.00%    100.00% |           0      0.00%    100.00% |           0      0.00%    100.00% |           0      0.00%    100.00% |           0      0.00%    100.00% |           0      0.00%    100.00%
system.ruby.L2Cache_Controller.IM.L1_GETX::total            1                      
system.ruby.L2Cache_Controller.IM.Mem_Data |       40411      3.13%      3.13% |       40329      3.12%      6.25% |       40341      3.12%      9.38% |       40347      3.13%     12.50% |       40352      3.13%     15.63% |       40358      3.13%     18.76% |       40339      3.12%     21.88% |       40336      3.12%     25.00% |       40349      3.13%     28.13% |       40344      3.12%     31.25% |       40329      3.12%     34.38% |       40358      3.13%     37.50% |       40339      3.12%     40.63% |       40338      3.12%     43.75% |       40341      3.12%     46.88% |       40330      3.12%     50.00% |       40352      3.13%     53.13% |       40351      3.13%     56.25% |       40349      3.13%     59.38% |       40345      3.12%     62.50% |       40340      3.12%     65.63% |       40354      3.13%     68.75% |       40339      3.12%     71.88% |       40341      3.12%     75.00% |       40347      3.13%     78.13% |       40345      3.12%     81.25% |       40349      3.13%     84.38% |       40336      3.12%     87.50% |       40336      3.12%     90.63% |       40337      3.12%     93.75% |       40349      3.13%     96.88% |       40331      3.12%    100.00%
system.ruby.L2Cache_Controller.IM.Mem_Data::total      1291042                      
system.ruby.L2Cache_Controller.SS_MB.Exclusive_Unblock |           4      8.89%      8.89% |           6     13.33%     22.22% |           2      4.44%     26.67% |           6     13.33%     40.00% |           1      2.22%     42.22% |           0      0.00%     42.22% |           1      2.22%     44.44% |           0      0.00%     44.44% |           0      0.00%     44.44% |           1      2.22%     46.67% |           1      2.22%     48.89% |           0      0.00%     48.89% |           4      8.89%     57.78% |           0      0.00%     57.78% |           3      6.67%     64.44% |           0      0.00%     64.44% |           0      0.00%     64.44% |           0      0.00%     64.44% |           9     20.00%     84.44% |           0      0.00%     84.44% |           0      0.00%     84.44% |           0      0.00%     84.44% |           0      0.00%     84.44% |           0      0.00%     84.44% |           1      2.22%     86.67% |           2      4.44%     91.11% |           1      2.22%     93.33% |           1      2.22%     95.56% |           0      0.00%     95.56% |           1      2.22%     97.78% |           1      2.22%    100.00% |           0      0.00%    100.00%
system.ruby.L2Cache_Controller.SS_MB.Exclusive_Unblock::total           45                      
system.ruby.L2Cache_Controller.MT_MB.L1_PUTX |           2    100.00%    100.00% |           0      0.00%    100.00% |           0      0.00%    100.00% |           0      0.00%    100.00% |           0      0.00%    100.00% |           0      0.00%    100.00% |           0      0.00%    100.00% |           0      0.00%    100.00% |           0      0.00%    100.00% |           0      0.00%    100.00% |           0      0.00%    100.00% |           0      0.00%    100.00% |           0      0.00%    100.00% |           0      0.00%    100.00% |           0      0.00%    100.00% |           0      0.00%    100.00% |           0      0.00%    100.00% |           0      0.00%    100.00% |           0      0.00%    100.00% |           0      0.00%    100.00% |           0      0.00%    100.00% |           0      0.00%    100.00% |           0      0.00%    100.00% |           0      0.00%    100.00% |           0      0.00%    100.00% |           0      0.00%    100.00% |           0      0.00%    100.00% |           0      0.00%    100.00% |           0      0.00%    100.00% |           0      0.00%    100.00% |           0      0.00%    100.00% |           0      0.00%    100.00%
system.ruby.L2Cache_Controller.MT_MB.L1_PUTX::total            2                      
system.ruby.L2Cache_Controller.MT_MB.Exclusive_Unblock |      173291      8.49%      8.49% |       64257      3.15%     11.64% |       58752      2.88%     14.51% |       58459      2.86%     17.38% |       57801      2.83%     20.21% |       56502      2.77%     22.98% |       55014      2.69%     25.67% |       55304      2.71%     28.38% |       59151      2.90%     31.28% |       57718      2.83%     34.11% |       60647      2.97%     37.08% |       60209      2.95%     40.03% |       56859      2.79%     42.81% |       56795      2.78%     45.59% |       56447      2.77%     48.36% |       56867      2.79%     51.14% |       59200      2.90%     54.04% |       58513      2.87%     56.91% |       59885      2.93%     59.84% |       60877      2.98%     62.82% |       60907      2.98%     65.81% |       63097      3.09%     68.90% |       64326      3.15%     72.05% |       60548      2.97%     75.02% |       61103      2.99%     78.01% |       62469      3.06%     81.07% |       60796      2.98%     84.05% |       61418      3.01%     87.06% |       64095      3.14%     90.20% |       61915      3.03%     93.23% |       70028      3.43%     96.66% |       68214      3.34%    100.00%
system.ruby.L2Cache_Controller.MT_MB.Exclusive_Unblock::total      2041464                      
system.ruby.L2Cache_Controller.MT_IIB.L1_PUTX |           1    100.00%    100.00% |           0      0.00%    100.00% |           0      0.00%    100.00% |           0      0.00%    100.00% |           0      0.00%    100.00% |           0      0.00%    100.00% |           0      0.00%    100.00% |           0      0.00%    100.00% |           0      0.00%    100.00% |           0      0.00%    100.00% |           0      0.00%    100.00% |           0      0.00%    100.00% |           0      0.00%    100.00% |           0      0.00%    100.00% |           0      0.00%    100.00% |           0      0.00%    100.00% |           0      0.00%    100.00% |           0      0.00%    100.00% |           0      0.00%    100.00% |           0      0.00%    100.00% |           0      0.00%    100.00% |           0      0.00%    100.00% |           0      0.00%    100.00% |           0      0.00%    100.00% |           0      0.00%    100.00% |           0      0.00%    100.00% |           0      0.00%    100.00% |           0      0.00%    100.00% |           0      0.00%    100.00% |           0      0.00%    100.00% |           0      0.00%    100.00% |           0      0.00%    100.00%
system.ruby.L2Cache_Controller.MT_IIB.L1_PUTX::total            1                      
system.ruby.L2Cache_Controller.MT_IIB.WB_Data |           0      0.00%      0.00% |           0      0.00%      0.00% |           0      0.00%      0.00% |           0      0.00%      0.00% |           0      0.00%      0.00% |           1     50.00%     50.00% |           0      0.00%     50.00% |           0      0.00%     50.00% |           0      0.00%     50.00% |           0      0.00%     50.00% |           0      0.00%     50.00% |           0      0.00%     50.00% |           0      0.00%     50.00% |           0      0.00%     50.00% |           0      0.00%     50.00% |           0      0.00%     50.00% |           0      0.00%     50.00% |           0      0.00%     50.00% |           0      0.00%     50.00% |           0      0.00%     50.00% |           0      0.00%     50.00% |           0      0.00%     50.00% |           0      0.00%     50.00% |           0      0.00%     50.00% |           0      0.00%     50.00% |           0      0.00%     50.00% |           0      0.00%     50.00% |           0      0.00%     50.00% |           1     50.00%    100.00% |           0      0.00%    100.00% |           0      0.00%    100.00% |           0      0.00%    100.00%
system.ruby.L2Cache_Controller.MT_IIB.WB_Data::total            2                      
system.ruby.L2Cache_Controller.MT_IIB.WB_Data_clean |           9    100.00%    100.00% |           0      0.00%    100.00% |           0      0.00%    100.00% |           0      0.00%    100.00% |           0      0.00%    100.00% |           0      0.00%    100.00% |           0      0.00%    100.00% |           0      0.00%    100.00% |           0      0.00%    100.00% |           0      0.00%    100.00% |           0      0.00%    100.00% |           0      0.00%    100.00% |           0      0.00%    100.00% |           0      0.00%    100.00% |           0      0.00%    100.00% |           0      0.00%    100.00% |           0      0.00%    100.00% |           0      0.00%    100.00% |           0      0.00%    100.00% |           0      0.00%    100.00% |           0      0.00%    100.00% |           0      0.00%    100.00% |           0      0.00%    100.00% |           0      0.00%    100.00% |           0      0.00%    100.00% |           0      0.00%    100.00% |           0      0.00%    100.00% |           0      0.00%    100.00% |           0      0.00%    100.00% |           0      0.00%    100.00% |           0      0.00%    100.00% |           0      0.00%    100.00%
system.ruby.L2Cache_Controller.MT_IIB.WB_Data_clean::total            9                      
system.ruby.L2Cache_Controller.MT_SB.Unblock |           9     81.82%     81.82% |           0      0.00%     81.82% |           0      0.00%     81.82% |           0      0.00%     81.82% |           0      0.00%     81.82% |           1      9.09%     90.91% |           0      0.00%     90.91% |           0      0.00%     90.91% |           0      0.00%     90.91% |           0      0.00%     90.91% |           0      0.00%     90.91% |           0      0.00%     90.91% |           0      0.00%     90.91% |           0      0.00%     90.91% |           0      0.00%     90.91% |           0      0.00%     90.91% |           0      0.00%     90.91% |           0      0.00%     90.91% |           0      0.00%     90.91% |           0      0.00%     90.91% |           0      0.00%     90.91% |           0      0.00%     90.91% |           0      0.00%     90.91% |           0      0.00%     90.91% |           0      0.00%     90.91% |           0      0.00%     90.91% |           0      0.00%     90.91% |           0      0.00%     90.91% |           1      9.09%    100.00% |           0      0.00%    100.00% |           0      0.00%    100.00% |           0      0.00%    100.00%
system.ruby.L2Cache_Controller.MT_SB.Unblock::total           11                      
system.ruby.SimicsNetworkPortInterface_Controller.MessageSend |      279947     23.24%     23.24% |      602300     50.00%     73.24% |       39123      3.25%     76.49% |       43292      3.59%     80.08% |       40205      3.34%     83.42% |       42328      3.51%     86.93% |       40155      3.33%     90.27% |       41882      3.48%     93.74% |       36941      3.07%     96.81% |       38427      3.19%    100.00% |           0      0.00%    100.00% |           0      0.00%    100.00% |           0      0.00%    100.00% |           0      0.00%    100.00% |           0      0.00%    100.00% |           0      0.00%    100.00% |           0      0.00%    100.00% |           0      0.00%    100.00% |           0      0.00%    100.00% |           0      0.00%    100.00% |           0      0.00%    100.00% |           0      0.00%    100.00% |           0      0.00%    100.00% |           0      0.00%    100.00% |           0      0.00%    100.00% |           0      0.00%    100.00% |           0      0.00%    100.00% |           0      0.00%    100.00% |           0      0.00%    100.00% |           0      0.00%    100.00% |           0      0.00%    100.00% |           0      0.00%    100.00%
system.ruby.SimicsNetworkPortInterface_Controller.MessageSend::total      1204600                      
system.ruby.SimicsNetworkPortInterface_Controller.MessageRecv |      279947     23.24%     23.24% |      602300     50.00%     73.24% |       39123      3.25%     76.49% |       43292      3.59%     80.08% |       40205      3.34%     83.42% |       42328      3.51%     86.93% |       40155      3.33%     90.27% |       41882      3.48%     93.74% |       36941      3.07%     96.81% |       38427      3.19%    100.00% |           0      0.00%    100.00% |           0      0.00%    100.00% |           0      0.00%    100.00% |           0      0.00%    100.00% |           0      0.00%    100.00% |           0      0.00%    100.00% |           0      0.00%    100.00% |           0      0.00%    100.00% |           0      0.00%    100.00% |           0      0.00%    100.00% |           0      0.00%    100.00% |           0      0.00%    100.00% |           0      0.00%    100.00% |           0      0.00%    100.00% |           0      0.00%    100.00% |           0      0.00%    100.00% |           0      0.00%    100.00% |           0      0.00%    100.00% |           0      0.00%    100.00% |           0      0.00%    100.00% |           0      0.00%    100.00% |           0      0.00%    100.00%
system.ruby.SimicsNetworkPortInterface_Controller.MessageRecv::total      1204600                      
system.ruby.SimicsNetworkPortInterface_Controller.A.MessageSend |      279947     23.24%     23.24% |      602300     50.00%     73.24% |       39123      3.25%     76.49% |       43292      3.59%     80.08% |       40205      3.34%     83.42% |       42328      3.51%     86.93% |       40155      3.33%     90.27% |       41882      3.48%     93.74% |       36941      3.07%     96.81% |       38427      3.19%    100.00% |           0      0.00%    100.00% |           0      0.00%    100.00% |           0      0.00%    100.00% |           0      0.00%    100.00% |           0      0.00%    100.00% |           0      0.00%    100.00% |           0      0.00%    100.00% |           0      0.00%    100.00% |           0      0.00%    100.00% |           0      0.00%    100.00% |           0      0.00%    100.00% |           0      0.00%    100.00% |           0      0.00%    100.00% |           0      0.00%    100.00% |           0      0.00%    100.00% |           0      0.00%    100.00% |           0      0.00%    100.00% |           0      0.00%    100.00% |           0      0.00%    100.00% |           0      0.00%    100.00% |           0      0.00%    100.00% |           0      0.00%    100.00%
system.ruby.SimicsNetworkPortInterface_Controller.A.MessageSend::total      1204600                      
system.ruby.SimicsNetworkPortInterface_Controller.A.MessageRecv |      279947     23.24%     23.24% |      602300     50.00%     73.24% |       39123      3.25%     76.49% |       43292      3.59%     80.08% |       40205      3.34%     83.42% |       42328      3.51%     86.93% |       40155      3.33%     90.27% |       41882      3.48%     93.74% |       36941      3.07%     96.81% |       38427      3.19%    100.00% |           0      0.00%    100.00% |           0      0.00%    100.00% |           0      0.00%    100.00% |           0      0.00%    100.00% |           0      0.00%    100.00% |           0      0.00%    100.00% |           0      0.00%    100.00% |           0      0.00%    100.00% |           0      0.00%    100.00% |           0      0.00%    100.00% |           0      0.00%    100.00% |           0      0.00%    100.00% |           0      0.00%    100.00% |           0      0.00%    100.00% |           0      0.00%    100.00% |           0      0.00%    100.00% |           0      0.00%    100.00% |           0      0.00%    100.00% |           0      0.00%    100.00% |           0      0.00%    100.00% |           0      0.00%    100.00% |           0      0.00%    100.00%
system.ruby.SimicsNetworkPortInterface_Controller.A.MessageRecv::total      1204600                      
system.switch_cpus.kern.inst.arm                    0                       # number of arm instructions executed
system.switch_cpus.kern.inst.quiesce                0                       # number of quiesce instructions executed

---------- End Simulation Statistics   ----------
