
---------- Begin Simulation Statistics ----------
sim_seconds                                  0.038035                       # Number of seconds simulated
sim_ticks                                 38035484000                       # Number of ticks simulated
final_tick                               5214203562500                       # Number of ticks from beginning of simulation (restored from checkpoints and never reset)
sim_freq                                 1000000000000                       # Frequency of simulated ticks
host_inst_rate                                  65353                       # Simulator instruction rate (inst/s)
host_op_rate                                   117537                       # Simulator op (including micro ops) rate (op/s)
host_tick_rate                              102298149                       # Simulator tick rate (ticks/s)
host_mem_usage                                6217180                       # Number of bytes of host memory used
host_seconds                                   371.81                       # Real time elapsed on the host
sim_insts                                    24299087                       # Number of instructions simulated
sim_ops                                      43701499                       # Number of ops (including micro ops) simulated
system.voltage_domain.voltage                       1                       # Voltage in Volts
system.clk_domain.clock                           500                       # Clock period in ticks
system.mem_ctrls0.bytes_read::ruby.dir_cntrl0      4968448                       # Number of bytes read from this memory
system.mem_ctrls0.bytes_read::total           4968448                       # Number of bytes read from this memory
system.mem_ctrls0.bytes_written::ruby.dir_cntrl0      3964480                       # Number of bytes written to this memory
system.mem_ctrls0.bytes_written::total        3964480                       # Number of bytes written to this memory
system.mem_ctrls0.num_reads::ruby.dir_cntrl0        77632                       # Number of read requests responded to by this memory
system.mem_ctrls0.num_reads::total              77632                       # Number of read requests responded to by this memory
system.mem_ctrls0.num_writes::ruby.dir_cntrl0        61945                       # Number of write requests responded to by this memory
system.mem_ctrls0.num_writes::total             61945                       # Number of write requests responded to by this memory
system.mem_ctrls0.bw_read::ruby.dir_cntrl0    130626654                       # Total read bandwidth from this memory (bytes/s)
system.mem_ctrls0.bw_read::total            130626654                       # Total read bandwidth from this memory (bytes/s)
system.mem_ctrls0.bw_write::ruby.dir_cntrl0    104231091                       # Write bandwidth from this memory (bytes/s)
system.mem_ctrls0.bw_write::total           104231091                       # Write bandwidth from this memory (bytes/s)
system.mem_ctrls0.bw_total::ruby.dir_cntrl0    234857745                       # Total bandwidth to/from this memory (bytes/s)
system.mem_ctrls0.bw_total::total           234857745                       # Total bandwidth to/from this memory (bytes/s)
system.mem_ctrls0.readReqs                      77632                       # Number of read requests accepted
system.mem_ctrls0.writeReqs                     61945                       # Number of write requests accepted
system.mem_ctrls0.readBursts                    77632                       # Number of DRAM read bursts, including those serviced by the write queue
system.mem_ctrls0.writeBursts                   61945                       # Number of DRAM write bursts, including those merged in the write queue
system.mem_ctrls0.bytesReadDRAM               4967040                       # Total number of bytes read from DRAM
system.mem_ctrls0.bytesReadWrQ                   1408                       # Total number of bytes read from write queue
system.mem_ctrls0.bytesWritten                3964480                       # Total number of bytes written to DRAM
system.mem_ctrls0.bytesReadSys                4968448                       # Total read bytes from the system interface side
system.mem_ctrls0.bytesWrittenSys             3964480                       # Total written bytes from the system interface side
system.mem_ctrls0.servicedByWrQ                    22                       # Number of DRAM read bursts serviced by the write queue
system.mem_ctrls0.mergedWrBursts                    0                       # Number of DRAM write bursts merged with an existing one
system.mem_ctrls0.neitherReadNorWriteReqs            0                       # Number of requests that are neither read nor write
system.mem_ctrls0.perBankRdBursts::0             4394                       # Per bank write bursts
system.mem_ctrls0.perBankRdBursts::1             4840                       # Per bank write bursts
system.mem_ctrls0.perBankRdBursts::2             4545                       # Per bank write bursts
system.mem_ctrls0.perBankRdBursts::3             4966                       # Per bank write bursts
system.mem_ctrls0.perBankRdBursts::4             4854                       # Per bank write bursts
system.mem_ctrls0.perBankRdBursts::5             5351                       # Per bank write bursts
system.mem_ctrls0.perBankRdBursts::6             4949                       # Per bank write bursts
system.mem_ctrls0.perBankRdBursts::7             5221                       # Per bank write bursts
system.mem_ctrls0.perBankRdBursts::8             5045                       # Per bank write bursts
system.mem_ctrls0.perBankRdBursts::9             5202                       # Per bank write bursts
system.mem_ctrls0.perBankRdBursts::10            4616                       # Per bank write bursts
system.mem_ctrls0.perBankRdBursts::11            4794                       # Per bank write bursts
system.mem_ctrls0.perBankRdBursts::12            4590                       # Per bank write bursts
system.mem_ctrls0.perBankRdBursts::13            4630                       # Per bank write bursts
system.mem_ctrls0.perBankRdBursts::14            4798                       # Per bank write bursts
system.mem_ctrls0.perBankRdBursts::15            4815                       # Per bank write bursts
system.mem_ctrls0.perBankWrBursts::0             3622                       # Per bank write bursts
system.mem_ctrls0.perBankWrBursts::1             3567                       # Per bank write bursts
system.mem_ctrls0.perBankWrBursts::2             3643                       # Per bank write bursts
system.mem_ctrls0.perBankWrBursts::3             3794                       # Per bank write bursts
system.mem_ctrls0.perBankWrBursts::4             3862                       # Per bank write bursts
system.mem_ctrls0.perBankWrBursts::5             4191                       # Per bank write bursts
system.mem_ctrls0.perBankWrBursts::6             3928                       # Per bank write bursts
system.mem_ctrls0.perBankWrBursts::7             4180                       # Per bank write bursts
system.mem_ctrls0.perBankWrBursts::8             4057                       # Per bank write bursts
system.mem_ctrls0.perBankWrBursts::9             4133                       # Per bank write bursts
system.mem_ctrls0.perBankWrBursts::10            3698                       # Per bank write bursts
system.mem_ctrls0.perBankWrBursts::11            3637                       # Per bank write bursts
system.mem_ctrls0.perBankWrBursts::12            3796                       # Per bank write bursts
system.mem_ctrls0.perBankWrBursts::13            3901                       # Per bank write bursts
system.mem_ctrls0.perBankWrBursts::14            4029                       # Per bank write bursts
system.mem_ctrls0.perBankWrBursts::15            3907                       # Per bank write bursts
system.mem_ctrls0.numRdRetry                        0                       # Number of times read queue was full causing retry
system.mem_ctrls0.numWrRetry                      110                       # Number of times write queue was full causing retry
system.mem_ctrls0.totGap                  38035004000                       # Total gap between requests
system.mem_ctrls0.readPktSize::0                    0                       # Read request sizes (log2)
system.mem_ctrls0.readPktSize::1                    0                       # Read request sizes (log2)
system.mem_ctrls0.readPktSize::2                    0                       # Read request sizes (log2)
system.mem_ctrls0.readPktSize::3                    0                       # Read request sizes (log2)
system.mem_ctrls0.readPktSize::4                    0                       # Read request sizes (log2)
system.mem_ctrls0.readPktSize::5                    0                       # Read request sizes (log2)
system.mem_ctrls0.readPktSize::6                77632                       # Read request sizes (log2)
system.mem_ctrls0.writePktSize::0                   0                       # Write request sizes (log2)
system.mem_ctrls0.writePktSize::1                   0                       # Write request sizes (log2)
system.mem_ctrls0.writePktSize::2                   0                       # Write request sizes (log2)
system.mem_ctrls0.writePktSize::3                   0                       # Write request sizes (log2)
system.mem_ctrls0.writePktSize::4                   0                       # Write request sizes (log2)
system.mem_ctrls0.writePktSize::5                   0                       # Write request sizes (log2)
system.mem_ctrls0.writePktSize::6               61945                       # Write request sizes (log2)
system.mem_ctrls0.rdQLenPdf::0                  60051                       # What read queue length does an incoming req see
system.mem_ctrls0.rdQLenPdf::1                  10645                       # What read queue length does an incoming req see
system.mem_ctrls0.rdQLenPdf::2                   3429                       # What read queue length does an incoming req see
system.mem_ctrls0.rdQLenPdf::3                   1364                       # What read queue length does an incoming req see
system.mem_ctrls0.rdQLenPdf::4                    742                       # What read queue length does an incoming req see
system.mem_ctrls0.rdQLenPdf::5                    434                       # What read queue length does an incoming req see
system.mem_ctrls0.rdQLenPdf::6                    261                       # What read queue length does an incoming req see
system.mem_ctrls0.rdQLenPdf::7                    168                       # What read queue length does an incoming req see
system.mem_ctrls0.rdQLenPdf::8                    103                       # What read queue length does an incoming req see
system.mem_ctrls0.rdQLenPdf::9                     76                       # What read queue length does an incoming req see
system.mem_ctrls0.rdQLenPdf::10                    60                       # What read queue length does an incoming req see
system.mem_ctrls0.rdQLenPdf::11                    50                       # What read queue length does an incoming req see
system.mem_ctrls0.rdQLenPdf::12                    42                       # What read queue length does an incoming req see
system.mem_ctrls0.rdQLenPdf::13                    29                       # What read queue length does an incoming req see
system.mem_ctrls0.rdQLenPdf::14                    22                       # What read queue length does an incoming req see
system.mem_ctrls0.rdQLenPdf::15                    20                       # What read queue length does an incoming req see
system.mem_ctrls0.rdQLenPdf::16                    25                       # What read queue length does an incoming req see
system.mem_ctrls0.rdQLenPdf::17                    18                       # What read queue length does an incoming req see
system.mem_ctrls0.rdQLenPdf::18                    17                       # What read queue length does an incoming req see
system.mem_ctrls0.rdQLenPdf::19                    13                       # What read queue length does an incoming req see
system.mem_ctrls0.rdQLenPdf::20                     7                       # What read queue length does an incoming req see
system.mem_ctrls0.rdQLenPdf::21                     7                       # What read queue length does an incoming req see
system.mem_ctrls0.rdQLenPdf::22                     7                       # What read queue length does an incoming req see
system.mem_ctrls0.rdQLenPdf::23                     5                       # What read queue length does an incoming req see
system.mem_ctrls0.rdQLenPdf::24                     7                       # What read queue length does an incoming req see
system.mem_ctrls0.rdQLenPdf::25                     2                       # What read queue length does an incoming req see
system.mem_ctrls0.rdQLenPdf::26                     2                       # What read queue length does an incoming req see
system.mem_ctrls0.rdQLenPdf::27                     1                       # What read queue length does an incoming req see
system.mem_ctrls0.rdQLenPdf::28                     1                       # What read queue length does an incoming req see
system.mem_ctrls0.rdQLenPdf::29                     1                       # What read queue length does an incoming req see
system.mem_ctrls0.rdQLenPdf::30                     1                       # What read queue length does an incoming req see
system.mem_ctrls0.rdQLenPdf::31                     0                       # What read queue length does an incoming req see
system.mem_ctrls0.wrQLenPdf::0                  11557                       # What write queue length does an incoming req see
system.mem_ctrls0.wrQLenPdf::1                  12642                       # What write queue length does an incoming req see
system.mem_ctrls0.wrQLenPdf::2                  12620                       # What write queue length does an incoming req see
system.mem_ctrls0.wrQLenPdf::3                  12353                       # What write queue length does an incoming req see
system.mem_ctrls0.wrQLenPdf::4                  11967                       # What write queue length does an incoming req see
system.mem_ctrls0.wrQLenPdf::5                    446                       # What write queue length does an incoming req see
system.mem_ctrls0.wrQLenPdf::6                    166                       # What write queue length does an incoming req see
system.mem_ctrls0.wrQLenPdf::7                    194                       # What write queue length does an incoming req see
system.mem_ctrls0.bytesPerActivate::samples        52828                       # Bytes accessed per row activation
system.mem_ctrls0.bytesPerActivate::mean   169.048535                       # Bytes accessed per row activation
system.mem_ctrls0.bytesPerActivate::gmean   120.013577                       # Bytes accessed per row activation
system.mem_ctrls0.bytesPerActivate::stdev   175.669461                       # Bytes accessed per row activation
system.mem_ctrls0.bytesPerActivate::0-127        27175     51.44%     51.44% # Bytes accessed per row activation
system.mem_ctrls0.bytesPerActivate::128-255        13001     24.61%     76.05% # Bytes accessed per row activation
system.mem_ctrls0.bytesPerActivate::256-383         7730     14.63%     90.68% # Bytes accessed per row activation
system.mem_ctrls0.bytesPerActivate::384-511         1900      3.60%     94.28% # Bytes accessed per row activation
system.mem_ctrls0.bytesPerActivate::512-639         1111      2.10%     96.38% # Bytes accessed per row activation
system.mem_ctrls0.bytesPerActivate::640-767          589      1.11%     97.50% # Bytes accessed per row activation
system.mem_ctrls0.bytesPerActivate::768-895          417      0.79%     98.29% # Bytes accessed per row activation
system.mem_ctrls0.bytesPerActivate::896-1023          317      0.60%     98.89% # Bytes accessed per row activation
system.mem_ctrls0.bytesPerActivate::1024-1151          588      1.11%    100.00% # Bytes accessed per row activation
system.mem_ctrls0.bytesPerActivate::total        52828                       # Bytes accessed per row activation
system.mem_ctrls0.rdPerTurnAround::samples        11576                       # Reads before turning the bus around for writes
system.mem_ctrls0.rdPerTurnAround::mean      6.704302                       # Reads before turning the bus around for writes
system.mem_ctrls0.rdPerTurnAround::stdev    37.519282                       # Reads before turning the bus around for writes
system.mem_ctrls0.rdPerTurnAround::0-127        11570     99.95%     99.95% # Reads before turning the bus around for writes
system.mem_ctrls0.rdPerTurnAround::128-255            5      0.04%     99.99% # Reads before turning the bus around for writes
system.mem_ctrls0.rdPerTurnAround::3968-4095            1      0.01%    100.00% # Reads before turning the bus around for writes
system.mem_ctrls0.rdPerTurnAround::total        11576                       # Reads before turning the bus around for writes
system.mem_ctrls0.wrPerTurnAround::samples        11576                       # Writes before turning the bus around for reads
system.mem_ctrls0.wrPerTurnAround::mean      5.351158                       # Writes before turning the bus around for reads
system.mem_ctrls0.wrPerTurnAround::gmean     5.279477                       # Writes before turning the bus around for reads
system.mem_ctrls0.wrPerTurnAround::stdev     1.091160                       # Writes before turning the bus around for reads
system.mem_ctrls0.wrPerTurnAround::4-7          11106     95.94%     95.94% # Writes before turning the bus around for reads
system.mem_ctrls0.wrPerTurnAround::8-11           394      3.40%     99.34% # Writes before turning the bus around for reads
system.mem_ctrls0.wrPerTurnAround::12-15           52      0.45%     99.79% # Writes before turning the bus around for reads
system.mem_ctrls0.wrPerTurnAround::16-19           24      0.21%    100.00% # Writes before turning the bus around for reads
system.mem_ctrls0.wrPerTurnAround::total        11576                       # Writes before turning the bus around for reads
system.mem_ctrls0.totQLat                  1838000167                       # Total ticks spent queuing
system.mem_ctrls0.totMemAccLat             3293187667                       # Total ticks spent from burst creation until serviced by the DRAM
system.mem_ctrls0.totBusLat                 388050000                       # Total ticks spent in databus transfers
system.mem_ctrls0.avgQLat                    23682.52                       # Average queueing delay per DRAM burst
system.mem_ctrls0.avgBusLat                   5000.00                       # Average bus latency per DRAM burst
system.mem_ctrls0.avgMemAccLat               42432.52                       # Average memory access latency per DRAM burst
system.mem_ctrls0.avgRdBW                      130.59                       # Average DRAM read bandwidth in MiByte/s
system.mem_ctrls0.avgWrBW                      104.23                       # Average achieved write bandwidth in MiByte/s
system.mem_ctrls0.avgRdBWSys                   130.63                       # Average system read bandwidth in MiByte/s
system.mem_ctrls0.avgWrBWSys                   104.23                       # Average system write bandwidth in MiByte/s
system.mem_ctrls0.peakBW                     12800.00                       # Theoretical peak bandwidth in MiByte/s
system.mem_ctrls0.busUtil                        1.83                       # Data bus utilization in percentage
system.mem_ctrls0.busUtilRead                    1.02                       # Data bus utilization in percentage for reads
system.mem_ctrls0.busUtilWrite                   0.81                       # Data bus utilization in percentage for writes
system.mem_ctrls0.avgRdQLen                      1.10                       # Average read queue length when enqueuing
system.mem_ctrls0.avgWrQLen                      2.86                       # Average write queue length when enqueuing
system.mem_ctrls0.readRowHits                   53382                       # Number of row buffer hits during reads
system.mem_ctrls0.writeRowHits                  33336                       # Number of row buffer hits during writes
system.mem_ctrls0.readRowHitRate                68.78                       # Row buffer hit rate for reads
system.mem_ctrls0.writeRowHitRate               53.82                       # Row buffer hit rate for writes
system.mem_ctrls0.avgGap                    272501.95                       # Average gap between requests
system.mem_ctrls0.pageHitRate                   62.14                       # Row buffer hit rate, read and write combined
system.mem_ctrls0.memoryStateTime::IDLE    8527865750                       # Time in different power states
system.mem_ctrls0.memoryStateTime::REF     1269840000                       # Time in different power states
system.mem_ctrls0.memoryStateTime::PRE_PDN            0                       # Time in different power states
system.mem_ctrls0.memoryStateTime::ACT    28231116250                       # Time in different power states
system.mem_ctrls0.memoryStateTime::ACT_PDN            0                       # Time in different power states
system.mem_ctrls0.actEnergy::0              199689840                       # Energy for activate commands per rank (pJ)
system.mem_ctrls0.actEnergy::1              199644480                       # Energy for activate commands per rank (pJ)
system.mem_ctrls0.preEnergy::0              108957750                       # Energy for precharge commands per rank (pJ)
system.mem_ctrls0.preEnergy::1              108933000                       # Energy for precharge commands per rank (pJ)
system.mem_ctrls0.readEnergy::0             305081400                       # Energy for read commands per rank (pJ)
system.mem_ctrls0.readEnergy::1             300128400                       # Energy for read commands per rank (pJ)
system.mem_ctrls0.writeEnergy::0            199480320                       # Energy for write commands per rank (pJ)
system.mem_ctrls0.writeEnergy::1            201858480                       # Energy for write commands per rank (pJ)
system.mem_ctrls0.refreshEnergy::0         2483807040                       # Energy for refresh commands per rank (pJ)
system.mem_ctrls0.refreshEnergy::1         2483807040                       # Energy for refresh commands per rank (pJ)
system.mem_ctrls0.actBackEnergy::0        15287154615                       # Energy for active background per rank (pJ)
system.mem_ctrls0.actBackEnergy::1        14857755660                       # Energy for active background per rank (pJ)
system.mem_ctrls0.preBackEnergy::0         9407198250                       # Energy for precharge background per rank (pJ)
system.mem_ctrls0.preBackEnergy::1         9783864000                       # Energy for precharge background per rank (pJ)
system.mem_ctrls0.totalEnergy::0          27991369215                       # Total energy per rank (pJ)
system.mem_ctrls0.totalEnergy::1          27935991060                       # Total energy per rank (pJ)
system.mem_ctrls0.averagePower::0          736.066706                       # Core power per rank (mW)
system.mem_ctrls0.averagePower::1          734.610471                       # Core power per rank (mW)
system.mem_ctrls1.bytes_read::ruby.dir_cntrl1      4882560                       # Number of bytes read from this memory
system.mem_ctrls1.bytes_read::total           4882560                       # Number of bytes read from this memory
system.mem_ctrls1.bytes_written::ruby.dir_cntrl1      3886208                       # Number of bytes written to this memory
system.mem_ctrls1.bytes_written::total        3886208                       # Number of bytes written to this memory
system.mem_ctrls1.num_reads::ruby.dir_cntrl1        76290                       # Number of read requests responded to by this memory
system.mem_ctrls1.num_reads::total              76290                       # Number of read requests responded to by this memory
system.mem_ctrls1.num_writes::ruby.dir_cntrl1        60722                       # Number of write requests responded to by this memory
system.mem_ctrls1.num_writes::total             60722                       # Number of write requests responded to by this memory
system.mem_ctrls1.bw_read::ruby.dir_cntrl1    128368552                       # Total read bandwidth from this memory (bytes/s)
system.mem_ctrls1.bw_read::total            128368552                       # Total read bandwidth from this memory (bytes/s)
system.mem_ctrls1.bw_write::ruby.dir_cntrl1    102173223                       # Write bandwidth from this memory (bytes/s)
system.mem_ctrls1.bw_write::total           102173223                       # Write bandwidth from this memory (bytes/s)
system.mem_ctrls1.bw_total::ruby.dir_cntrl1    230541775                       # Total bandwidth to/from this memory (bytes/s)
system.mem_ctrls1.bw_total::total           230541775                       # Total bandwidth to/from this memory (bytes/s)
system.mem_ctrls1.readReqs                      76290                       # Number of read requests accepted
system.mem_ctrls1.writeReqs                     60722                       # Number of write requests accepted
system.mem_ctrls1.readBursts                    76290                       # Number of DRAM read bursts, including those serviced by the write queue
system.mem_ctrls1.writeBursts                   60722                       # Number of DRAM write bursts, including those merged in the write queue
system.mem_ctrls1.bytesReadDRAM               4881664                       # Total number of bytes read from DRAM
system.mem_ctrls1.bytesReadWrQ                    896                       # Total number of bytes read from write queue
system.mem_ctrls1.bytesWritten                3886080                       # Total number of bytes written to DRAM
system.mem_ctrls1.bytesReadSys                4882560                       # Total read bytes from the system interface side
system.mem_ctrls1.bytesWrittenSys             3886208                       # Total written bytes from the system interface side
system.mem_ctrls1.servicedByWrQ                    14                       # Number of DRAM read bursts serviced by the write queue
system.mem_ctrls1.mergedWrBursts                    0                       # Number of DRAM write bursts merged with an existing one
system.mem_ctrls1.neitherReadNorWriteReqs            0                       # Number of requests that are neither read nor write
system.mem_ctrls1.perBankRdBursts::0             4324                       # Per bank write bursts
system.mem_ctrls1.perBankRdBursts::1             4748                       # Per bank write bursts
system.mem_ctrls1.perBankRdBursts::2             4466                       # Per bank write bursts
system.mem_ctrls1.perBankRdBursts::3             4894                       # Per bank write bursts
system.mem_ctrls1.perBankRdBursts::4             4784                       # Per bank write bursts
system.mem_ctrls1.perBankRdBursts::5             5299                       # Per bank write bursts
system.mem_ctrls1.perBankRdBursts::6             4884                       # Per bank write bursts
system.mem_ctrls1.perBankRdBursts::7             5163                       # Per bank write bursts
system.mem_ctrls1.perBankRdBursts::8             4938                       # Per bank write bursts
system.mem_ctrls1.perBankRdBursts::9             5092                       # Per bank write bursts
system.mem_ctrls1.perBankRdBursts::10            4518                       # Per bank write bursts
system.mem_ctrls1.perBankRdBursts::11            4727                       # Per bank write bursts
system.mem_ctrls1.perBankRdBursts::12            4493                       # Per bank write bursts
system.mem_ctrls1.perBankRdBursts::13            4572                       # Per bank write bursts
system.mem_ctrls1.perBankRdBursts::14            4636                       # Per bank write bursts
system.mem_ctrls1.perBankRdBursts::15            4738                       # Per bank write bursts
system.mem_ctrls1.perBankWrBursts::0             3556                       # Per bank write bursts
system.mem_ctrls1.perBankWrBursts::1             3507                       # Per bank write bursts
system.mem_ctrls1.perBankWrBursts::2             3578                       # Per bank write bursts
system.mem_ctrls1.perBankWrBursts::3             3743                       # Per bank write bursts
system.mem_ctrls1.perBankWrBursts::4             3792                       # Per bank write bursts
system.mem_ctrls1.perBankWrBursts::5             4123                       # Per bank write bursts
system.mem_ctrls1.perBankWrBursts::6             3850                       # Per bank write bursts
system.mem_ctrls1.perBankWrBursts::7             4097                       # Per bank write bursts
system.mem_ctrls1.perBankWrBursts::8             3969                       # Per bank write bursts
system.mem_ctrls1.perBankWrBursts::9             4037                       # Per bank write bursts
system.mem_ctrls1.perBankWrBursts::10            3616                       # Per bank write bursts
system.mem_ctrls1.perBankWrBursts::11            3570                       # Per bank write bursts
system.mem_ctrls1.perBankWrBursts::12            3719                       # Per bank write bursts
system.mem_ctrls1.perBankWrBursts::13            3830                       # Per bank write bursts
system.mem_ctrls1.perBankWrBursts::14            3898                       # Per bank write bursts
system.mem_ctrls1.perBankWrBursts::15            3835                       # Per bank write bursts
system.mem_ctrls1.numRdRetry                        3                       # Number of times read queue was full causing retry
system.mem_ctrls1.numWrRetry                      104                       # Number of times write queue was full causing retry
system.mem_ctrls1.totGap                  38034766000                       # Total gap between requests
system.mem_ctrls1.readPktSize::0                    0                       # Read request sizes (log2)
system.mem_ctrls1.readPktSize::1                    0                       # Read request sizes (log2)
system.mem_ctrls1.readPktSize::2                    0                       # Read request sizes (log2)
system.mem_ctrls1.readPktSize::3                    0                       # Read request sizes (log2)
system.mem_ctrls1.readPktSize::4                    0                       # Read request sizes (log2)
system.mem_ctrls1.readPktSize::5                    0                       # Read request sizes (log2)
system.mem_ctrls1.readPktSize::6                76290                       # Read request sizes (log2)
system.mem_ctrls1.writePktSize::0                   0                       # Write request sizes (log2)
system.mem_ctrls1.writePktSize::1                   0                       # Write request sizes (log2)
system.mem_ctrls1.writePktSize::2                   0                       # Write request sizes (log2)
system.mem_ctrls1.writePktSize::3                   0                       # Write request sizes (log2)
system.mem_ctrls1.writePktSize::4                   0                       # Write request sizes (log2)
system.mem_ctrls1.writePktSize::5                   0                       # Write request sizes (log2)
system.mem_ctrls1.writePktSize::6               60722                       # Write request sizes (log2)
system.mem_ctrls1.rdQLenPdf::0                  59525                       # What read queue length does an incoming req see
system.mem_ctrls1.rdQLenPdf::1                  10057                       # What read queue length does an incoming req see
system.mem_ctrls1.rdQLenPdf::2                   3152                       # What read queue length does an incoming req see
system.mem_ctrls1.rdQLenPdf::3                   1337                       # What read queue length does an incoming req see
system.mem_ctrls1.rdQLenPdf::4                    741                       # What read queue length does an incoming req see
system.mem_ctrls1.rdQLenPdf::5                    479                       # What read queue length does an incoming req see
system.mem_ctrls1.rdQLenPdf::6                    301                       # What read queue length does an incoming req see
system.mem_ctrls1.rdQLenPdf::7                    178                       # What read queue length does an incoming req see
system.mem_ctrls1.rdQLenPdf::8                    109                       # What read queue length does an incoming req see
system.mem_ctrls1.rdQLenPdf::9                     66                       # What read queue length does an incoming req see
system.mem_ctrls1.rdQLenPdf::10                    51                       # What read queue length does an incoming req see
system.mem_ctrls1.rdQLenPdf::11                    43                       # What read queue length does an incoming req see
system.mem_ctrls1.rdQLenPdf::12                    42                       # What read queue length does an incoming req see
system.mem_ctrls1.rdQLenPdf::13                    28                       # What read queue length does an incoming req see
system.mem_ctrls1.rdQLenPdf::14                    26                       # What read queue length does an incoming req see
system.mem_ctrls1.rdQLenPdf::15                    21                       # What read queue length does an incoming req see
system.mem_ctrls1.rdQLenPdf::16                    20                       # What read queue length does an incoming req see
system.mem_ctrls1.rdQLenPdf::17                    17                       # What read queue length does an incoming req see
system.mem_ctrls1.rdQLenPdf::18                    14                       # What read queue length does an incoming req see
system.mem_ctrls1.rdQLenPdf::19                    17                       # What read queue length does an incoming req see
system.mem_ctrls1.rdQLenPdf::20                    12                       # What read queue length does an incoming req see
system.mem_ctrls1.rdQLenPdf::21                    10                       # What read queue length does an incoming req see
system.mem_ctrls1.rdQLenPdf::22                     8                       # What read queue length does an incoming req see
system.mem_ctrls1.rdQLenPdf::23                     4                       # What read queue length does an incoming req see
system.mem_ctrls1.rdQLenPdf::24                     2                       # What read queue length does an incoming req see
system.mem_ctrls1.rdQLenPdf::25                     3                       # What read queue length does an incoming req see
system.mem_ctrls1.rdQLenPdf::26                     2                       # What read queue length does an incoming req see
system.mem_ctrls1.rdQLenPdf::27                     2                       # What read queue length does an incoming req see
system.mem_ctrls1.rdQLenPdf::28                     2                       # What read queue length does an incoming req see
system.mem_ctrls1.rdQLenPdf::29                     2                       # What read queue length does an incoming req see
system.mem_ctrls1.rdQLenPdf::30                     1                       # What read queue length does an incoming req see
system.mem_ctrls1.rdQLenPdf::31                     4                       # What read queue length does an incoming req see
system.mem_ctrls1.wrQLenPdf::0                  11338                       # What write queue length does an incoming req see
system.mem_ctrls1.wrQLenPdf::1                  12357                       # What write queue length does an incoming req see
system.mem_ctrls1.wrQLenPdf::2                  12380                       # What write queue length does an incoming req see
system.mem_ctrls1.wrQLenPdf::3                  12159                       # What write queue length does an incoming req see
system.mem_ctrls1.wrQLenPdf::4                  11726                       # What write queue length does an incoming req see
system.mem_ctrls1.wrQLenPdf::5                    416                       # What write queue length does an incoming req see
system.mem_ctrls1.wrQLenPdf::6                    158                       # What write queue length does an incoming req see
system.mem_ctrls1.wrQLenPdf::7                    188                       # What write queue length does an incoming req see
system.mem_ctrls1.bytesPerActivate::samples        50859                       # Bytes accessed per row activation
system.mem_ctrls1.bytesPerActivate::mean   172.361706                       # Bytes accessed per row activation
system.mem_ctrls1.bytesPerActivate::gmean   121.877125                       # Bytes accessed per row activation
system.mem_ctrls1.bytesPerActivate::stdev   178.894712                       # Bytes accessed per row activation
system.mem_ctrls1.bytesPerActivate::0-127        25697     50.53%     50.53% # Bytes accessed per row activation
system.mem_ctrls1.bytesPerActivate::128-255        12639     24.85%     75.38% # Bytes accessed per row activation
system.mem_ctrls1.bytesPerActivate::256-383         7586     14.92%     90.29% # Bytes accessed per row activation
system.mem_ctrls1.bytesPerActivate::384-511         1832      3.60%     93.89% # Bytes accessed per row activation
system.mem_ctrls1.bytesPerActivate::512-639         1163      2.29%     96.18% # Bytes accessed per row activation
system.mem_ctrls1.bytesPerActivate::640-767          598      1.18%     97.36% # Bytes accessed per row activation
system.mem_ctrls1.bytesPerActivate::768-895          433      0.85%     98.21% # Bytes accessed per row activation
system.mem_ctrls1.bytesPerActivate::896-1023          312      0.61%     98.82% # Bytes accessed per row activation
system.mem_ctrls1.bytesPerActivate::1024-1151          599      1.18%    100.00% # Bytes accessed per row activation
system.mem_ctrls1.bytesPerActivate::total        50859                       # Bytes accessed per row activation
system.mem_ctrls1.rdPerTurnAround::samples        11352                       # Reads before turning the bus around for writes
system.mem_ctrls1.rdPerTurnAround::mean      6.718552                       # Reads before turning the bus around for writes
system.mem_ctrls1.rdPerTurnAround::stdev    29.867534                       # Reads before turning the bus around for writes
system.mem_ctrls1.rdPerTurnAround::0-127        11347     99.96%     99.96% # Reads before turning the bus around for writes
system.mem_ctrls1.rdPerTurnAround::128-255            3      0.03%     99.98% # Reads before turning the bus around for writes
system.mem_ctrls1.rdPerTurnAround::1152-1279            1      0.01%     99.99% # Reads before turning the bus around for writes
system.mem_ctrls1.rdPerTurnAround::2816-2943            1      0.01%    100.00% # Reads before turning the bus around for writes
system.mem_ctrls1.rdPerTurnAround::total        11352                       # Reads before turning the bus around for writes
system.mem_ctrls1.wrPerTurnAround::samples        11352                       # Writes before turning the bus around for reads
system.mem_ctrls1.wrPerTurnAround::mean      5.348837                       # Writes before turning the bus around for reads
system.mem_ctrls1.wrPerTurnAround::gmean     5.274865                       # Writes before turning the bus around for reads
system.mem_ctrls1.wrPerTurnAround::stdev     1.113053                       # Writes before turning the bus around for reads
system.mem_ctrls1.wrPerTurnAround::4-7          10903     96.04%     96.04% # Writes before turning the bus around for reads
system.mem_ctrls1.wrPerTurnAround::8-11           355      3.13%     99.17% # Writes before turning the bus around for reads
system.mem_ctrls1.wrPerTurnAround::12-15           72      0.63%     99.81% # Writes before turning the bus around for reads
system.mem_ctrls1.wrPerTurnAround::16-19           22      0.19%    100.00% # Writes before turning the bus around for reads
system.mem_ctrls1.wrPerTurnAround::total        11352                       # Writes before turning the bus around for reads
system.mem_ctrls1.totQLat                  1824856414                       # Total ticks spent queuing
system.mem_ctrls1.totMemAccLat             3255031414                       # Total ticks spent from burst creation until serviced by the DRAM
system.mem_ctrls1.totBusLat                 381380000                       # Total ticks spent in databus transfers
system.mem_ctrls1.avgQLat                    23924.39                       # Average queueing delay per DRAM burst
system.mem_ctrls1.avgBusLat                   5000.00                       # Average bus latency per DRAM burst
system.mem_ctrls1.avgMemAccLat               42674.39                       # Average memory access latency per DRAM burst
system.mem_ctrls1.avgRdBW                      128.34                       # Average DRAM read bandwidth in MiByte/s
system.mem_ctrls1.avgWrBW                      102.17                       # Average achieved write bandwidth in MiByte/s
system.mem_ctrls1.avgRdBWSys                   128.37                       # Average system read bandwidth in MiByte/s
system.mem_ctrls1.avgWrBWSys                   102.17                       # Average system write bandwidth in MiByte/s
system.mem_ctrls1.peakBW                     12800.00                       # Theoretical peak bandwidth in MiByte/s
system.mem_ctrls1.busUtil                        1.80                       # Data bus utilization in percentage
system.mem_ctrls1.busUtilRead                    1.00                       # Data bus utilization in percentage for reads
system.mem_ctrls1.busUtilWrite                   0.80                       # Data bus utilization in percentage for writes
system.mem_ctrls1.avgRdQLen                      1.07                       # Average read queue length when enqueuing
system.mem_ctrls1.avgWrQLen                      2.91                       # Average write queue length when enqueuing
system.mem_ctrls1.readRowHits                   52690                       # Number of row buffer hits during reads
system.mem_ctrls1.writeRowHits                  33436                       # Number of row buffer hits during writes
system.mem_ctrls1.readRowHitRate                69.08                       # Row buffer hit rate for reads
system.mem_ctrls1.writeRowHitRate               55.06                       # Row buffer hit rate for writes
system.mem_ctrls1.avgGap                    277601.71                       # Average gap between requests
system.mem_ctrls1.pageHitRate                   62.87                       # Row buffer hit rate, read and write combined
system.mem_ctrls1.memoryStateTime::IDLE    8888548500                       # Time in different power states
system.mem_ctrls1.memoryStateTime::REF     1269840000                       # Time in different power states
system.mem_ctrls1.memoryStateTime::PRE_PDN            0                       # Time in different power states
system.mem_ctrls1.memoryStateTime::ACT    27869930250                       # Time in different power states
system.mem_ctrls1.memoryStateTime::ACT_PDN            0                       # Time in different power states
system.mem_ctrls1.actEnergy::0              193725000                       # Energy for activate commands per rank (pJ)
system.mem_ctrls1.actEnergy::1              190716120                       # Energy for activate commands per rank (pJ)
system.mem_ctrls1.preEnergy::0              105703125                       # Energy for precharge commands per rank (pJ)
system.mem_ctrls1.preEnergy::1              104061375                       # Energy for precharge commands per rank (pJ)
system.mem_ctrls1.readEnergy::0             300697800                       # Energy for read commands per rank (pJ)
system.mem_ctrls1.readEnergy::1             294060000                       # Energy for read commands per rank (pJ)
system.mem_ctrls1.writeEnergy::0            195987600                       # Energy for write commands per rank (pJ)
system.mem_ctrls1.writeEnergy::1            197413200                       # Energy for write commands per rank (pJ)
system.mem_ctrls1.refreshEnergy::0         2483807040                       # Energy for refresh commands per rank (pJ)
system.mem_ctrls1.refreshEnergy::1         2483807040                       # Energy for refresh commands per rank (pJ)
system.mem_ctrls1.actBackEnergy::0        15170144445                       # Energy for active background per rank (pJ)
system.mem_ctrls1.actBackEnergy::1        14440832010                       # Energy for active background per rank (pJ)
system.mem_ctrls1.preBackEnergy::0         9509838750                       # Energy for precharge background per rank (pJ)
system.mem_ctrls1.preBackEnergy::1        10149586500                       # Energy for precharge background per rank (pJ)
system.mem_ctrls1.totalEnergy::0          27959903760                       # Total energy per rank (pJ)
system.mem_ctrls1.totalEnergy::1          27860476245                       # Total energy per rank (pJ)
system.mem_ctrls1.averagePower::0          735.239285                       # Core power per rank (mW)
system.mem_ctrls1.averagePower::1          732.624718                       # Core power per rank (mW)
system.mem_ctrls2.bytes_read::ruby.dir_cntrl2      4880384                       # Number of bytes read from this memory
system.mem_ctrls2.bytes_read::total           4880384                       # Number of bytes read from this memory
system.mem_ctrls2.bytes_written::ruby.dir_cntrl2      3884672                       # Number of bytes written to this memory
system.mem_ctrls2.bytes_written::total        3884672                       # Number of bytes written to this memory
system.mem_ctrls2.num_reads::ruby.dir_cntrl2        76256                       # Number of read requests responded to by this memory
system.mem_ctrls2.num_reads::total              76256                       # Number of read requests responded to by this memory
system.mem_ctrls2.num_writes::ruby.dir_cntrl2        60698                       # Number of write requests responded to by this memory
system.mem_ctrls2.num_writes::total             60698                       # Number of write requests responded to by this memory
system.mem_ctrls2.bw_read::ruby.dir_cntrl2    128311342                       # Total read bandwidth from this memory (bytes/s)
system.mem_ctrls2.bw_read::total            128311342                       # Total read bandwidth from this memory (bytes/s)
system.mem_ctrls2.bw_write::ruby.dir_cntrl2    102132840                       # Write bandwidth from this memory (bytes/s)
system.mem_ctrls2.bw_write::total           102132840                       # Write bandwidth from this memory (bytes/s)
system.mem_ctrls2.bw_total::ruby.dir_cntrl2    230444182                       # Total bandwidth to/from this memory (bytes/s)
system.mem_ctrls2.bw_total::total           230444182                       # Total bandwidth to/from this memory (bytes/s)
system.mem_ctrls2.readReqs                      76256                       # Number of read requests accepted
system.mem_ctrls2.writeReqs                     60698                       # Number of write requests accepted
system.mem_ctrls2.readBursts                    76256                       # Number of DRAM read bursts, including those serviced by the write queue
system.mem_ctrls2.writeBursts                   60698                       # Number of DRAM write bursts, including those merged in the write queue
system.mem_ctrls2.bytesReadDRAM               4879424                       # Total number of bytes read from DRAM
system.mem_ctrls2.bytesReadWrQ                    960                       # Total number of bytes read from write queue
system.mem_ctrls2.bytesWritten                3884480                       # Total number of bytes written to DRAM
system.mem_ctrls2.bytesReadSys                4880384                       # Total read bytes from the system interface side
system.mem_ctrls2.bytesWrittenSys             3884672                       # Total written bytes from the system interface side
system.mem_ctrls2.servicedByWrQ                    15                       # Number of DRAM read bursts serviced by the write queue
system.mem_ctrls2.mergedWrBursts                    0                       # Number of DRAM write bursts merged with an existing one
system.mem_ctrls2.neitherReadNorWriteReqs            0                       # Number of requests that are neither read nor write
system.mem_ctrls2.perBankRdBursts::0             4319                       # Per bank write bursts
system.mem_ctrls2.perBankRdBursts::1             4751                       # Per bank write bursts
system.mem_ctrls2.perBankRdBursts::2             4466                       # Per bank write bursts
system.mem_ctrls2.perBankRdBursts::3             4903                       # Per bank write bursts
system.mem_ctrls2.perBankRdBursts::4             4777                       # Per bank write bursts
system.mem_ctrls2.perBankRdBursts::5             5293                       # Per bank write bursts
system.mem_ctrls2.perBankRdBursts::6             4862                       # Per bank write bursts
system.mem_ctrls2.perBankRdBursts::7             5159                       # Per bank write bursts
system.mem_ctrls2.perBankRdBursts::8             4913                       # Per bank write bursts
system.mem_ctrls2.perBankRdBursts::9             5099                       # Per bank write bursts
system.mem_ctrls2.perBankRdBursts::10            4520                       # Per bank write bursts
system.mem_ctrls2.perBankRdBursts::11            4768                       # Per bank write bursts
system.mem_ctrls2.perBankRdBursts::12            4492                       # Per bank write bursts
system.mem_ctrls2.perBankRdBursts::13            4543                       # Per bank write bursts
system.mem_ctrls2.perBankRdBursts::14            4623                       # Per bank write bursts
system.mem_ctrls2.perBankRdBursts::15            4753                       # Per bank write bursts
system.mem_ctrls2.perBankWrBursts::0             3555                       # Per bank write bursts
system.mem_ctrls2.perBankWrBursts::1             3507                       # Per bank write bursts
system.mem_ctrls2.perBankWrBursts::2             3568                       # Per bank write bursts
system.mem_ctrls2.perBankWrBursts::3             3732                       # Per bank write bursts
system.mem_ctrls2.perBankWrBursts::4             3787                       # Per bank write bursts
system.mem_ctrls2.perBankWrBursts::5             4117                       # Per bank write bursts
system.mem_ctrls2.perBankWrBursts::6             3853                       # Per bank write bursts
system.mem_ctrls2.perBankWrBursts::7             4107                       # Per bank write bursts
system.mem_ctrls2.perBankWrBursts::8             3963                       # Per bank write bursts
system.mem_ctrls2.perBankWrBursts::9             4044                       # Per bank write bursts
system.mem_ctrls2.perBankWrBursts::10            3616                       # Per bank write bursts
system.mem_ctrls2.perBankWrBursts::11            3577                       # Per bank write bursts
system.mem_ctrls2.perBankWrBursts::12            3719                       # Per bank write bursts
system.mem_ctrls2.perBankWrBursts::13            3820                       # Per bank write bursts
system.mem_ctrls2.perBankWrBursts::14            3893                       # Per bank write bursts
system.mem_ctrls2.perBankWrBursts::15            3837                       # Per bank write bursts
system.mem_ctrls2.numRdRetry                        0                       # Number of times read queue was full causing retry
system.mem_ctrls2.numWrRetry                       63                       # Number of times write queue was full causing retry
system.mem_ctrls2.totGap                  38035254500                       # Total gap between requests
system.mem_ctrls2.readPktSize::0                    0                       # Read request sizes (log2)
system.mem_ctrls2.readPktSize::1                    0                       # Read request sizes (log2)
system.mem_ctrls2.readPktSize::2                    0                       # Read request sizes (log2)
system.mem_ctrls2.readPktSize::3                    0                       # Read request sizes (log2)
system.mem_ctrls2.readPktSize::4                    0                       # Read request sizes (log2)
system.mem_ctrls2.readPktSize::5                    0                       # Read request sizes (log2)
system.mem_ctrls2.readPktSize::6                76256                       # Read request sizes (log2)
system.mem_ctrls2.writePktSize::0                   0                       # Write request sizes (log2)
system.mem_ctrls2.writePktSize::1                   0                       # Write request sizes (log2)
system.mem_ctrls2.writePktSize::2                   0                       # Write request sizes (log2)
system.mem_ctrls2.writePktSize::3                   0                       # Write request sizes (log2)
system.mem_ctrls2.writePktSize::4                   0                       # Write request sizes (log2)
system.mem_ctrls2.writePktSize::5                   0                       # Write request sizes (log2)
system.mem_ctrls2.writePktSize::6               60698                       # Write request sizes (log2)
system.mem_ctrls2.rdQLenPdf::0                  59764                       # What read queue length does an incoming req see
system.mem_ctrls2.rdQLenPdf::1                  10099                       # What read queue length does an incoming req see
system.mem_ctrls2.rdQLenPdf::2                   3133                       # What read queue length does an incoming req see
system.mem_ctrls2.rdQLenPdf::3                   1333                       # What read queue length does an incoming req see
system.mem_ctrls2.rdQLenPdf::4                    716                       # What read queue length does an incoming req see
system.mem_ctrls2.rdQLenPdf::5                    425                       # What read queue length does an incoming req see
system.mem_ctrls2.rdQLenPdf::6                    256                       # What read queue length does an incoming req see
system.mem_ctrls2.rdQLenPdf::7                    150                       # What read queue length does an incoming req see
system.mem_ctrls2.rdQLenPdf::8                     82                       # What read queue length does an incoming req see
system.mem_ctrls2.rdQLenPdf::9                     63                       # What read queue length does an incoming req see
system.mem_ctrls2.rdQLenPdf::10                    41                       # What read queue length does an incoming req see
system.mem_ctrls2.rdQLenPdf::11                    34                       # What read queue length does an incoming req see
system.mem_ctrls2.rdQLenPdf::12                    26                       # What read queue length does an incoming req see
system.mem_ctrls2.rdQLenPdf::13                    21                       # What read queue length does an incoming req see
system.mem_ctrls2.rdQLenPdf::14                    17                       # What read queue length does an incoming req see
system.mem_ctrls2.rdQLenPdf::15                    16                       # What read queue length does an incoming req see
system.mem_ctrls2.rdQLenPdf::16                    12                       # What read queue length does an incoming req see
system.mem_ctrls2.rdQLenPdf::17                    12                       # What read queue length does an incoming req see
system.mem_ctrls2.rdQLenPdf::18                    11                       # What read queue length does an incoming req see
system.mem_ctrls2.rdQLenPdf::19                    10                       # What read queue length does an incoming req see
system.mem_ctrls2.rdQLenPdf::20                     9                       # What read queue length does an incoming req see
system.mem_ctrls2.rdQLenPdf::21                     5                       # What read queue length does an incoming req see
system.mem_ctrls2.rdQLenPdf::22                     2                       # What read queue length does an incoming req see
system.mem_ctrls2.rdQLenPdf::23                     2                       # What read queue length does an incoming req see
system.mem_ctrls2.rdQLenPdf::24                     2                       # What read queue length does an incoming req see
system.mem_ctrls2.rdQLenPdf::25                     0                       # What read queue length does an incoming req see
system.mem_ctrls2.rdQLenPdf::26                     0                       # What read queue length does an incoming req see
system.mem_ctrls2.rdQLenPdf::27                     0                       # What read queue length does an incoming req see
system.mem_ctrls2.rdQLenPdf::28                     0                       # What read queue length does an incoming req see
system.mem_ctrls2.rdQLenPdf::29                     0                       # What read queue length does an incoming req see
system.mem_ctrls2.rdQLenPdf::30                     0                       # What read queue length does an incoming req see
system.mem_ctrls2.rdQLenPdf::31                     0                       # What read queue length does an incoming req see
system.mem_ctrls2.wrQLenPdf::0                  11366                       # What write queue length does an incoming req see
system.mem_ctrls2.wrQLenPdf::1                  12307                       # What write queue length does an incoming req see
system.mem_ctrls2.wrQLenPdf::2                  12368                       # What write queue length does an incoming req see
system.mem_ctrls2.wrQLenPdf::3                  12162                       # What write queue length does an incoming req see
system.mem_ctrls2.wrQLenPdf::4                  11813                       # What write queue length does an incoming req see
system.mem_ctrls2.wrQLenPdf::5                    385                       # What write queue length does an incoming req see
system.mem_ctrls2.wrQLenPdf::6                    166                       # What write queue length does an incoming req see
system.mem_ctrls2.wrQLenPdf::7                    131                       # What write queue length does an incoming req see
system.mem_ctrls2.bytesPerActivate::samples        50984                       # Bytes accessed per row activation
system.mem_ctrls2.bytesPerActivate::mean   171.868822                       # Bytes accessed per row activation
system.mem_ctrls2.bytesPerActivate::gmean   121.534420                       # Bytes accessed per row activation
system.mem_ctrls2.bytesPerActivate::stdev   178.476697                       # Bytes accessed per row activation
system.mem_ctrls2.bytesPerActivate::0-127        25889     50.78%     50.78% # Bytes accessed per row activation
system.mem_ctrls2.bytesPerActivate::128-255        12592     24.70%     75.48% # Bytes accessed per row activation
system.mem_ctrls2.bytesPerActivate::256-383         7568     14.84%     90.32% # Bytes accessed per row activation
system.mem_ctrls2.bytesPerActivate::384-511         1889      3.71%     94.03% # Bytes accessed per row activation
system.mem_ctrls2.bytesPerActivate::512-639         1100      2.16%     96.18% # Bytes accessed per row activation
system.mem_ctrls2.bytesPerActivate::640-767          619      1.21%     97.40% # Bytes accessed per row activation
system.mem_ctrls2.bytesPerActivate::768-895          416      0.82%     98.21% # Bytes accessed per row activation
system.mem_ctrls2.bytesPerActivate::896-1023          307      0.60%     98.82% # Bytes accessed per row activation
system.mem_ctrls2.bytesPerActivate::1024-1151          604      1.18%    100.00% # Bytes accessed per row activation
system.mem_ctrls2.bytesPerActivate::total        50984                       # Bytes accessed per row activation
system.mem_ctrls2.rdPerTurnAround::samples        11380                       # Reads before turning the bus around for writes
system.mem_ctrls2.rdPerTurnAround::mean      6.698858                       # Reads before turning the bus around for writes
system.mem_ctrls2.rdPerTurnAround::stdev    29.899969                       # Reads before turning the bus around for writes
system.mem_ctrls2.rdPerTurnAround::0-127        11375     99.96%     99.96% # Reads before turning the bus around for writes
system.mem_ctrls2.rdPerTurnAround::128-255            3      0.03%     99.98% # Reads before turning the bus around for writes
system.mem_ctrls2.rdPerTurnAround::1152-1279            1      0.01%     99.99% # Reads before turning the bus around for writes
system.mem_ctrls2.rdPerTurnAround::2816-2943            1      0.01%    100.00% # Reads before turning the bus around for writes
system.mem_ctrls2.rdPerTurnAround::total        11380                       # Reads before turning the bus around for writes
system.mem_ctrls2.wrPerTurnAround::samples        11380                       # Writes before turning the bus around for reads
system.mem_ctrls2.wrPerTurnAround::mean      5.333480                       # Writes before turning the bus around for reads
system.mem_ctrls2.wrPerTurnAround::gmean     5.264297                       # Writes before turning the bus around for reads
system.mem_ctrls2.wrPerTurnAround::stdev     1.070970                       # Writes before turning the bus around for reads
system.mem_ctrls2.wrPerTurnAround::4-7          10950     96.22%     96.22% # Writes before turning the bus around for reads
system.mem_ctrls2.wrPerTurnAround::8-11           346      3.04%     99.26% # Writes before turning the bus around for reads
system.mem_ctrls2.wrPerTurnAround::12-15           68      0.60%     99.86% # Writes before turning the bus around for reads
system.mem_ctrls2.wrPerTurnAround::16-19           16      0.14%    100.00% # Writes before turning the bus around for reads
system.mem_ctrls2.wrPerTurnAround::total        11380                       # Writes before turning the bus around for reads
system.mem_ctrls2.totQLat                  1742384970                       # Total ticks spent queuing
system.mem_ctrls2.totMemAccLat             3171903720                       # Total ticks spent from burst creation until serviced by the DRAM
system.mem_ctrls2.totBusLat                 381205000                       # Total ticks spent in databus transfers
system.mem_ctrls2.avgQLat                    22853.65                       # Average queueing delay per DRAM burst
system.mem_ctrls2.avgBusLat                   5000.00                       # Average bus latency per DRAM burst
system.mem_ctrls2.avgMemAccLat               41603.65                       # Average memory access latency per DRAM burst
system.mem_ctrls2.avgRdBW                      128.29                       # Average DRAM read bandwidth in MiByte/s
system.mem_ctrls2.avgWrBW                      102.13                       # Average achieved write bandwidth in MiByte/s
system.mem_ctrls2.avgRdBWSys                   128.31                       # Average system read bandwidth in MiByte/s
system.mem_ctrls2.avgWrBWSys                   102.13                       # Average system write bandwidth in MiByte/s
system.mem_ctrls2.peakBW                     12800.00                       # Theoretical peak bandwidth in MiByte/s
system.mem_ctrls2.busUtil                        1.80                       # Data bus utilization in percentage
system.mem_ctrls2.busUtilRead                    1.00                       # Data bus utilization in percentage for reads
system.mem_ctrls2.busUtilWrite                   0.80                       # Data bus utilization in percentage for writes
system.mem_ctrls2.avgRdQLen                      1.07                       # Average read queue length when enqueuing
system.mem_ctrls2.avgWrQLen                      2.93                       # Average write queue length when enqueuing
system.mem_ctrls2.readRowHits                   52574                       # Number of row buffer hits during reads
system.mem_ctrls2.writeRowHits                  33370                       # Number of row buffer hits during writes
system.mem_ctrls2.readRowHitRate                68.96                       # Row buffer hit rate for reads
system.mem_ctrls2.writeRowHitRate               54.98                       # Row buffer hit rate for writes
system.mem_ctrls2.avgGap                    277722.84                       # Average gap between requests
system.mem_ctrls2.pageHitRate                   62.76                       # Row buffer hit rate, read and write combined
system.mem_ctrls2.memoryStateTime::IDLE    8883693250                       # Time in different power states
system.mem_ctrls2.memoryStateTime::REF     1269840000                       # Time in different power states
system.mem_ctrls2.memoryStateTime::PRE_PDN            0                       # Time in different power states
system.mem_ctrls2.memoryStateTime::ACT    27874939750                       # Time in different power states
system.mem_ctrls2.memoryStateTime::ACT_PDN            0                       # Time in different power states
system.mem_ctrls2.actEnergy::0              194352480                       # Energy for activate commands per rank (pJ)
system.mem_ctrls2.actEnergy::1              191056320                       # Energy for activate commands per rank (pJ)
system.mem_ctrls2.preEnergy::0              106045500                       # Energy for precharge commands per rank (pJ)
system.mem_ctrls2.preEnergy::1              104247000                       # Energy for precharge commands per rank (pJ)
system.mem_ctrls2.readEnergy::0             300456000                       # Energy for read commands per rank (pJ)
system.mem_ctrls2.readEnergy::1             294067800                       # Energy for read commands per rank (pJ)
system.mem_ctrls2.writeEnergy::0            195864480                       # Energy for write commands per rank (pJ)
system.mem_ctrls2.writeEnergy::1            197406720                       # Energy for write commands per rank (pJ)
system.mem_ctrls2.refreshEnergy::0         2483807040                       # Energy for refresh commands per rank (pJ)
system.mem_ctrls2.refreshEnergy::1         2483807040                       # Energy for refresh commands per rank (pJ)
system.mem_ctrls2.actBackEnergy::0        15036801210                       # Energy for active background per rank (pJ)
system.mem_ctrls2.actBackEnergy::1        14572525095                       # Energy for active background per rank (pJ)
system.mem_ctrls2.preBackEnergy::0         9626806500                       # Energy for precharge background per rank (pJ)
system.mem_ctrls2.preBackEnergy::1        10034066250                       # Energy for precharge background per rank (pJ)
system.mem_ctrls2.totalEnergy::0          27944133210                       # Total energy per rank (pJ)
system.mem_ctrls2.totalEnergy::1          27877176225                       # Total energy per rank (pJ)
system.mem_ctrls2.averagePower::0          734.824579                       # Core power per rank (mW)
system.mem_ctrls2.averagePower::1          733.063865                       # Core power per rank (mW)
system.mem_ctrls3.bytes_read::ruby.dir_cntrl3      4858304                       # Number of bytes read from this memory
system.mem_ctrls3.bytes_read::total           4858304                       # Number of bytes read from this memory
system.mem_ctrls3.bytes_written::ruby.dir_cntrl3      3879360                       # Number of bytes written to this memory
system.mem_ctrls3.bytes_written::total        3879360                       # Number of bytes written to this memory
system.mem_ctrls3.num_reads::ruby.dir_cntrl3        75911                       # Number of read requests responded to by this memory
system.mem_ctrls3.num_reads::total              75911                       # Number of read requests responded to by this memory
system.mem_ctrls3.num_writes::ruby.dir_cntrl3        60615                       # Number of write requests responded to by this memory
system.mem_ctrls3.num_writes::total             60615                       # Number of write requests responded to by this memory
system.mem_ctrls3.bw_read::ruby.dir_cntrl3    127730832                       # Total read bandwidth from this memory (bytes/s)
system.mem_ctrls3.bw_read::total            127730832                       # Total read bandwidth from this memory (bytes/s)
system.mem_ctrls3.bw_write::ruby.dir_cntrl3    101993181                       # Write bandwidth from this memory (bytes/s)
system.mem_ctrls3.bw_write::total           101993181                       # Write bandwidth from this memory (bytes/s)
system.mem_ctrls3.bw_total::ruby.dir_cntrl3    229724012                       # Total bandwidth to/from this memory (bytes/s)
system.mem_ctrls3.bw_total::total           229724012                       # Total bandwidth to/from this memory (bytes/s)
system.mem_ctrls3.readReqs                      75912                       # Number of read requests accepted
system.mem_ctrls3.writeReqs                     60615                       # Number of write requests accepted
system.mem_ctrls3.readBursts                    75912                       # Number of DRAM read bursts, including those serviced by the write queue
system.mem_ctrls3.writeBursts                   60615                       # Number of DRAM write bursts, including those merged in the write queue
system.mem_ctrls3.bytesReadDRAM               4857792                       # Total number of bytes read from DRAM
system.mem_ctrls3.bytesReadWrQ                    576                       # Total number of bytes read from write queue
system.mem_ctrls3.bytesWritten                3879360                       # Total number of bytes written to DRAM
system.mem_ctrls3.bytesReadSys                4858368                       # Total read bytes from the system interface side
system.mem_ctrls3.bytesWrittenSys             3879360                       # Total written bytes from the system interface side
system.mem_ctrls3.servicedByWrQ                     9                       # Number of DRAM read bursts serviced by the write queue
system.mem_ctrls3.mergedWrBursts                    0                       # Number of DRAM write bursts merged with an existing one
system.mem_ctrls3.neitherReadNorWriteReqs            0                       # Number of requests that are neither read nor write
system.mem_ctrls3.perBankRdBursts::0             4297                       # Per bank write bursts
system.mem_ctrls3.perBankRdBursts::1             4715                       # Per bank write bursts
system.mem_ctrls3.perBankRdBursts::2             4419                       # Per bank write bursts
system.mem_ctrls3.perBankRdBursts::3             4860                       # Per bank write bursts
system.mem_ctrls3.perBankRdBursts::4             4738                       # Per bank write bursts
system.mem_ctrls3.perBankRdBursts::5             5240                       # Per bank write bursts
system.mem_ctrls3.perBankRdBursts::6             4866                       # Per bank write bursts
system.mem_ctrls3.perBankRdBursts::7             5148                       # Per bank write bursts
system.mem_ctrls3.perBankRdBursts::8             4921                       # Per bank write bursts
system.mem_ctrls3.perBankRdBursts::9             5077                       # Per bank write bursts
system.mem_ctrls3.perBankRdBursts::10            4520                       # Per bank write bursts
system.mem_ctrls3.perBankRdBursts::11            4731                       # Per bank write bursts
system.mem_ctrls3.perBankRdBursts::12            4482                       # Per bank write bursts
system.mem_ctrls3.perBankRdBursts::13            4517                       # Per bank write bursts
system.mem_ctrls3.perBankRdBursts::14            4644                       # Per bank write bursts
system.mem_ctrls3.perBankRdBursts::15            4728                       # Per bank write bursts
system.mem_ctrls3.perBankWrBursts::0             3554                       # Per bank write bursts
system.mem_ctrls3.perBankWrBursts::1             3502                       # Per bank write bursts
system.mem_ctrls3.perBankWrBursts::2             3566                       # Per bank write bursts
system.mem_ctrls3.perBankWrBursts::3             3718                       # Per bank write bursts
system.mem_ctrls3.perBankWrBursts::4             3786                       # Per bank write bursts
system.mem_ctrls3.perBankWrBursts::5             4100                       # Per bank write bursts
system.mem_ctrls3.perBankWrBursts::6             3842                       # Per bank write bursts
system.mem_ctrls3.perBankWrBursts::7             4094                       # Per bank write bursts
system.mem_ctrls3.perBankWrBursts::8             3970                       # Per bank write bursts
system.mem_ctrls3.perBankWrBursts::9             4037                       # Per bank write bursts
system.mem_ctrls3.perBankWrBursts::10            3605                       # Per bank write bursts
system.mem_ctrls3.perBankWrBursts::11            3581                       # Per bank write bursts
system.mem_ctrls3.perBankWrBursts::12            3718                       # Per bank write bursts
system.mem_ctrls3.perBankWrBursts::13            3823                       # Per bank write bursts
system.mem_ctrls3.perBankWrBursts::14            3894                       # Per bank write bursts
system.mem_ctrls3.perBankWrBursts::15            3825                       # Per bank write bursts
system.mem_ctrls3.numRdRetry                        6                       # Number of times read queue was full causing retry
system.mem_ctrls3.numWrRetry                       89                       # Number of times write queue was full causing retry
system.mem_ctrls3.totGap                  38034742000                       # Total gap between requests
system.mem_ctrls3.readPktSize::0                    0                       # Read request sizes (log2)
system.mem_ctrls3.readPktSize::1                    0                       # Read request sizes (log2)
system.mem_ctrls3.readPktSize::2                    0                       # Read request sizes (log2)
system.mem_ctrls3.readPktSize::3                    0                       # Read request sizes (log2)
system.mem_ctrls3.readPktSize::4                    0                       # Read request sizes (log2)
system.mem_ctrls3.readPktSize::5                    0                       # Read request sizes (log2)
system.mem_ctrls3.readPktSize::6                75912                       # Read request sizes (log2)
system.mem_ctrls3.writePktSize::0                   0                       # Write request sizes (log2)
system.mem_ctrls3.writePktSize::1                   0                       # Write request sizes (log2)
system.mem_ctrls3.writePktSize::2                   0                       # Write request sizes (log2)
system.mem_ctrls3.writePktSize::3                   0                       # Write request sizes (log2)
system.mem_ctrls3.writePktSize::4                   0                       # Write request sizes (log2)
system.mem_ctrls3.writePktSize::5                   0                       # Write request sizes (log2)
system.mem_ctrls3.writePktSize::6               60615                       # Write request sizes (log2)
system.mem_ctrls3.rdQLenPdf::0                  59343                       # What read queue length does an incoming req see
system.mem_ctrls3.rdQLenPdf::1                  10078                       # What read queue length does an incoming req see
system.mem_ctrls3.rdQLenPdf::2                   3236                       # What read queue length does an incoming req see
system.mem_ctrls3.rdQLenPdf::3                   1340                       # What read queue length does an incoming req see
system.mem_ctrls3.rdQLenPdf::4                    689                       # What read queue length does an incoming req see
system.mem_ctrls3.rdQLenPdf::5                    423                       # What read queue length does an incoming req see
system.mem_ctrls3.rdQLenPdf::6                    239                       # What read queue length does an incoming req see
system.mem_ctrls3.rdQLenPdf::7                    134                       # What read queue length does an incoming req see
system.mem_ctrls3.rdQLenPdf::8                     79                       # What read queue length does an incoming req see
system.mem_ctrls3.rdQLenPdf::9                     60                       # What read queue length does an incoming req see
system.mem_ctrls3.rdQLenPdf::10                    41                       # What read queue length does an incoming req see
system.mem_ctrls3.rdQLenPdf::11                    37                       # What read queue length does an incoming req see
system.mem_ctrls3.rdQLenPdf::12                    28                       # What read queue length does an incoming req see
system.mem_ctrls3.rdQLenPdf::13                    25                       # What read queue length does an incoming req see
system.mem_ctrls3.rdQLenPdf::14                    16                       # What read queue length does an incoming req see
system.mem_ctrls3.rdQLenPdf::15                    19                       # What read queue length does an incoming req see
system.mem_ctrls3.rdQLenPdf::16                    20                       # What read queue length does an incoming req see
system.mem_ctrls3.rdQLenPdf::17                    16                       # What read queue length does an incoming req see
system.mem_ctrls3.rdQLenPdf::18                    12                       # What read queue length does an incoming req see
system.mem_ctrls3.rdQLenPdf::19                    12                       # What read queue length does an incoming req see
system.mem_ctrls3.rdQLenPdf::20                    12                       # What read queue length does an incoming req see
system.mem_ctrls3.rdQLenPdf::21                     6                       # What read queue length does an incoming req see
system.mem_ctrls3.rdQLenPdf::22                     8                       # What read queue length does an incoming req see
system.mem_ctrls3.rdQLenPdf::23                     7                       # What read queue length does an incoming req see
system.mem_ctrls3.rdQLenPdf::24                     8                       # What read queue length does an incoming req see
[...]
system.ruby.L2Cache_Controller.MT_IIB.WB_Data::total       200087                      
system.ruby.L2Cache_Controller.MT_IIB.WB_Data_clean |         711      3.23%      3.23% |         698      3.17%      6.40% |         695      3.16%      9.56% |         682      3.10%     12.66% |         699      3.18%     15.84% |         697      3.17%     19.01% |         685      3.11%     22.12% |         672      3.05%     25.18% |         700      3.18%     28.36% |         683      3.10%     31.46% |         690      3.14%     34.60% |         690      3.14%     37.73% |         679      3.09%     40.82% |         664      3.02%     43.84% |         701      3.19%     47.03% |         687      3.12%     50.15% |         690      3.14%     53.28% |         682      3.10%     56.38% |         676      3.07%     59.46% |         680      3.09%     62.55% |         672      3.05%     65.60% |         667      3.03%     68.63% |         689      3.13%     71.76% |         678      3.08%     74.85% |         692      3.15%     77.99% |         689      3.13%     81.12% |         663      3.01%     84.14% |         686      3.12%     87.26% |         715      3.25%     90.50% |         698      3.17%     93.68% |         687      3.12%     96.80% |         704      3.20%    100.00%
system.ruby.L2Cache_Controller.MT_IIB.WB_Data_clean::total        22001                      
system.ruby.L2Cache_Controller.MT_IIB.Unblock |          53      0.75%      0.75% |          80      1.13%      1.88% |         180      2.54%      4.42% |         249      3.51%      7.93% |         106      1.50%      9.42% |         238      3.36%     12.78% |         280      3.95%     16.73% |         309      4.36%     21.09% |         319      4.50%     25.59% |         231      3.26%     28.85% |         208      2.93%     31.79% |         259      3.65%     35.44% |         176      2.48%     37.92% |         261      3.68%     41.61% |         176      2.48%     44.09% |         121      1.71%     45.80% |         226      3.19%     48.98% |         275      3.88%     52.86% |         260      3.67%     56.53% |         256      3.61%     60.14% |         301      4.25%     64.39% |         203      2.86%     67.25% |         178      2.51%     69.77% |         195      2.75%     72.52% |         293      4.13%     76.65% |         179      2.53%     79.18% |         265      3.74%     82.91% |         251      3.54%     86.46% |         144      2.03%     88.49% |         339      4.78%     93.27% |         153      2.16%     95.43% |         324      4.57%    100.00%
system.ruby.L2Cache_Controller.MT_IIB.Unblock::total         7088                      
system.ruby.L2Cache_Controller.MT_IB.L1_GETS |           0      0.00%      0.00% |           0      0.00%      0.00% |           0      0.00%      0.00% |           0      0.00%      0.00% |           0      0.00%      0.00% |           1     12.50%     12.50% |           1     12.50%     25.00% |           1     12.50%     37.50% |           0      0.00%     37.50% |           0      0.00%     37.50% |           0      0.00%     37.50% |           0      0.00%     37.50% |           0      0.00%     37.50% |           0      0.00%     37.50% |           0      0.00%     37.50% |           0      0.00%     37.50% |           0      0.00%     37.50% |           1     12.50%     50.00% |           0      0.00%     50.00% |           2     25.00%     75.00% |           0      0.00%     75.00% |           1     12.50%     87.50% |           0      0.00%     87.50% |           0      0.00%     87.50% |           0      0.00%     87.50% |           0      0.00%     87.50% |           0      0.00%     87.50% |           0      0.00%     87.50% |           1     12.50%    100.00% |           0      0.00%    100.00% |           0      0.00%    100.00% |           0      0.00%    100.00%
system.ruby.L2Cache_Controller.MT_IB.L1_GETS::total            8                      
system.ruby.L2Cache_Controller.MT_IB.L1_UPGRADE |           0      0.00%      0.00% |           0      0.00%      0.00% |           0      0.00%      0.00% |           0      0.00%      0.00% |           0      0.00%      0.00% |           1     25.00%     25.00% |           0      0.00%     25.00% |           0      0.00%     25.00% |           0      0.00%     25.00% |           0      0.00%     25.00% |           0      0.00%     25.00% |           1     25.00%     50.00% |           0      0.00%     50.00% |           0      0.00%     50.00% |           0      0.00%     50.00% |           0      0.00%     50.00% |           0      0.00%     50.00% |           0      0.00%     50.00% |           0      0.00%     50.00% |           0      0.00%     50.00% |           0      0.00%     50.00% |           0      0.00%     50.00% |           0      0.00%     50.00% |           1     25.00%     75.00% |           1     25.00%    100.00% |           0      0.00%    100.00% |           0      0.00%    100.00% |           0      0.00%    100.00% |           0      0.00%    100.00% |           0      0.00%    100.00% |           0      0.00%    100.00% |           0      0.00%    100.00%
system.ruby.L2Cache_Controller.MT_IB.L1_UPGRADE::total            4                      
system.ruby.L2Cache_Controller.MT_IB.WB_Data |          50      0.76%      0.76% |          74      1.13%      1.89% |         168      2.56%      4.46% |         226      3.45%      7.90% |          96      1.46%      9.37% |         219      3.34%     12.71% |         256      3.91%     16.62% |         283      4.32%     20.94% |         299      4.56%     25.50% |         214      3.27%     28.77% |         186      2.84%     31.60% |         244      3.72%     35.33% |         167      2.55%     37.88% |         229      3.49%     41.37% |         161      2.46%     43.83% |         111      1.69%     45.52% |         212      3.24%     48.76% |         259      3.95%     52.71% |         237      3.62%     56.33% |         234      3.57%     59.90% |         270      4.12%     64.02% |         188      2.87%     66.89% |         159      2.43%     69.31% |         181      2.76%     72.07% |         277      4.23%     76.30% |         169      2.58%     78.88% |         244      3.72%     82.60% |         238      3.63%     86.24% |         132      2.01%     88.25% |         321      4.90%     93.15% |         141      2.15%     95.30% |         308      4.70%    100.00%
system.ruby.L2Cache_Controller.MT_IB.WB_Data::total         6553                      
system.ruby.L2Cache_Controller.MT_IB.WB_Data_clean |           3      0.56%      0.56% |           6      1.12%      1.68% |          12      2.24%      3.93% |          23      4.30%      8.22% |          10      1.87%     10.09% |          19      3.55%     13.64% |          24      4.49%     18.13% |          26      4.86%     22.99% |          20      3.74%     26.73% |          17      3.18%     29.91% |          22      4.11%     34.02% |          15      2.80%     36.82% |           9      1.68%     38.50% |          32      5.98%     44.49% |          15      2.80%     47.29% |          10      1.87%     49.16% |          14      2.62%     51.78% |          16      2.99%     54.77% |          23      4.30%     59.07% |          22      4.11%     63.18% |          31      5.79%     68.97% |          15      2.80%     71.78% |          19      3.55%     75.33% |          14      2.62%     77.94% |          16      2.99%     80.93% |          10      1.87%     82.80% |          21      3.93%     86.73% |          13      2.43%     89.16% |          12      2.24%     91.40% |          18      3.36%     94.77% |          12      2.24%     97.01% |          16      2.99%    100.00%
system.ruby.L2Cache_Controller.MT_IB.WB_Data_clean::total          535                      
system.ruby.L2Cache_Controller.MT_SB.L1_GETS |          39      3.81%      3.81% |          28      2.74%      6.55% |          23      2.25%      8.80% |          32      3.13%     11.93% |          30      2.93%     14.86% |          40      3.91%     18.77% |          34      3.32%     22.09% |          25      2.44%     24.54% |          25      2.44%     26.98% |          38      3.71%     30.69% |          32      3.13%     33.82% |          34      3.32%     37.15% |          29      2.83%     39.98% |          36      3.52%     43.50% |          30      2.93%     46.43% |          38      3.71%     50.15% |          25      2.44%     52.59% |          41      4.01%     56.60% |          35      3.42%     60.02% |          19      1.86%     61.88% |          32      3.13%     65.00% |          33      3.23%     68.23% |          32      3.13%     71.36% |          28      2.74%     74.10% |          33      3.23%     77.32% |          24      2.35%     79.67% |          39      3.81%     83.48% |          36      3.52%     87.00% |          41      4.01%     91.01% |          37      3.62%     94.62% |          25      2.44%     97.07% |          30      2.93%    100.00%
system.ruby.L2Cache_Controller.MT_SB.L1_GETS::total         1023                      
system.ruby.L2Cache_Controller.MT_SB.L1_GETX |          11      2.64%      2.64% |           7      1.68%      4.33% |           5      1.20%      5.53% |          11      2.64%      8.17% |          11      2.64%     10.82% |          13      3.12%     13.94% |          10      2.40%     16.35% |          16      3.85%     20.19% |           6      1.44%     21.63% |          14      3.37%     25.00% |          13      3.12%     28.12% |          15      3.61%     31.73% |          16      3.85%     35.58% |           7      1.68%     37.26% |          14      3.37%     40.62% |          16      3.85%     44.47% |          14      3.37%     47.84% |          19      4.57%     52.40% |          11      2.64%     55.05% |          16      3.85%     58.89% |          16      3.85%     62.74% |          16      3.85%     66.59% |          12      2.88%     69.47% |          19      4.57%     74.04% |          15      3.61%     77.64% |           6      1.44%     79.09% |          21      5.05%     84.13% |          12      2.88%     87.02% |          22      5.29%     92.31% |           8      1.92%     94.23% |          16      3.85%     98.08% |           8      1.92%    100.00%
system.ruby.L2Cache_Controller.MT_SB.L1_GETX::total          416                      
system.ruby.L2Cache_Controller.MT_SB.L1_UPGRADE |           6      2.12%      2.12% |           7      2.47%      4.59% |          10      3.53%      8.13% |           5      1.77%      9.89% |          11      3.89%     13.78% |           6      2.12%     15.90% |           8      2.83%     18.73% |          10      3.53%     22.26% |          11      3.89%     26.15% |           9      3.18%     29.33% |           7      2.47%     31.80% |          12      4.24%     36.04% |          10      3.53%     39.58% |           4      1.41%     40.99% |           8      2.83%     43.82% |          12      4.24%     48.06% |           7      2.47%     50.53% |           6      2.12%     52.65% |          13      4.59%     57.24% |           7      2.47%     59.72% |           8      2.83%     62.54% |          12      4.24%     66.78% |          13      4.59%     71.38% |          11      3.89%     75.27% |          10      3.53%     78.80% |          12      4.24%     83.04% |           2      0.71%     83.75% |          14      4.95%     88.69% |          12      4.24%     92.93% |          10      3.53%     96.47% |           6      2.12%     98.59% |           4      1.41%    100.00%
system.ruby.L2Cache_Controller.MT_SB.L1_UPGRADE::total          283                      
system.ruby.L2Cache_Controller.MT_SB.L1_PUTX |           1     50.00%     50.00% |           0      0.00%     50.00% |           0      0.00%     50.00% |           0      0.00%     50.00% |           0      0.00%     50.00% |           0      0.00%     50.00% |           0      0.00%     50.00% |           0      0.00%     50.00% |           0      0.00%     50.00% |           0      0.00%     50.00% |           0      0.00%     50.00% |           0      0.00%     50.00% |           0      0.00%     50.00% |           0      0.00%     50.00% |           0      0.00%     50.00% |           0      0.00%     50.00% |           1     50.00%    100.00% |           0      0.00%    100.00% |           0      0.00%    100.00% |           0      0.00%    100.00% |           0      0.00%    100.00% |           0      0.00%    100.00% |           0      0.00%    100.00% |           0      0.00%    100.00% |           0      0.00%    100.00% |           0      0.00%    100.00% |           0      0.00%    100.00% |           0      0.00%    100.00% |           0      0.00%    100.00% |           0      0.00%    100.00% |           0      0.00%    100.00% |           0      0.00%    100.00%
system.ruby.L2Cache_Controller.MT_SB.L1_PUTX::total            2                      
system.ruby.L2Cache_Controller.MT_SB.Unblock |        7228      3.25%      3.25% |        7064      3.18%      6.44% |        7029      3.16%      9.60% |        6864      3.09%     12.69% |        7131      3.21%     15.90% |        6892      3.10%     19.01% |        6833      3.08%     22.08% |        6874      3.10%     25.18% |        6953      3.13%     28.31% |        6878      3.10%     31.40% |        6949      3.13%     34.53% |        6898      3.11%     37.64% |        7051      3.17%     40.81% |        6788      3.06%     43.87% |        6979      3.14%     47.01% |        6977      3.14%     50.15% |        7122      3.21%     53.36% |        6830      3.08%     56.44% |        6862      3.09%     59.53% |        6870      3.09%     62.62% |        6974      3.14%     65.76% |        6891      3.10%     68.86% |        6917      3.11%     71.98% |        6909      3.11%     75.09% |        6958      3.13%     78.22% |        6962      3.13%     81.36% |        6846      3.08%     84.44% |        6809      3.07%     87.50% |        7172      3.23%     90.73% |        6771      3.05%     93.78% |        7011      3.16%     96.94% |        6796      3.06%    100.00%
system.ruby.L2Cache_Controller.MT_SB.Unblock::total       222088                      
system.ruby.SimicsNetworkPortInterface_Controller.MessageSend |      807349     21.76%     21.76% |     1854779     50.00%     71.76% |      136228      3.67%     75.44% |      124028      3.34%     78.78% |      135885      3.66%     82.44% |      139704      3.77%     86.21% |      137641      3.71%     89.92% |      124755      3.36%     93.28% |      120576      3.25%     96.53% |      128613      3.47%    100.00% |           0      0.00%    100.00% |           0      0.00%    100.00% |           0      0.00%    100.00% |           0      0.00%    100.00% |           0      0.00%    100.00% |           0      0.00%    100.00% |           0      0.00%    100.00% |           0      0.00%    100.00% |           0      0.00%    100.00% |           0      0.00%    100.00% |           0      0.00%    100.00% |           0      0.00%    100.00% |           0      0.00%    100.00% |           0      0.00%    100.00% |           0      0.00%    100.00% |           0      0.00%    100.00% |           0      0.00%    100.00% |           0      0.00%    100.00% |           0      0.00%    100.00% |           0      0.00%    100.00% |           0      0.00%    100.00% |           0      0.00%    100.00%
system.ruby.SimicsNetworkPortInterface_Controller.MessageSend::total      3709558                      
system.ruby.SimicsNetworkPortInterface_Controller.MessageRecv |      807349     21.76%     21.76% |     1854779     50.00%     71.76% |      136228      3.67%     75.44% |      124028      3.34%     78.78% |      135885      3.66%     82.44% |      139704      3.77%     86.21% |      137641      3.71%     89.92% |      124755      3.36%     93.28% |      120576      3.25%     96.53% |      128613      3.47%    100.00% |           0      0.00%    100.00% |           0      0.00%    100.00% |           0      0.00%    100.00% |           0      0.00%    100.00% |           0      0.00%    100.00% |           0      0.00%    100.00% |           0      0.00%    100.00% |           0      0.00%    100.00% |           0      0.00%    100.00% |           0      0.00%    100.00% |           0      0.00%    100.00% |           0      0.00%    100.00% |           0      0.00%    100.00% |           0      0.00%    100.00% |           0      0.00%    100.00% |           0      0.00%    100.00% |           0      0.00%    100.00% |           0      0.00%    100.00% |           0      0.00%    100.00% |           0      0.00%    100.00% |           0      0.00%    100.00% |           0      0.00%    100.00%
system.ruby.SimicsNetworkPortInterface_Controller.MessageRecv::total      3709558                      
system.ruby.SimicsNetworkPortInterface_Controller.A.MessageSend |      807349     21.76%     21.76% |     1854779     50.00%     71.76% |      136228      3.67%     75.44% |      124028      3.34%     78.78% |      135885      3.66%     82.44% |      139704      3.77%     86.21% |      137641      3.71%     89.92% |      124755      3.36%     93.28% |      120576      3.25%     96.53% |      128613      3.47%    100.00% |           0      0.00%    100.00% |           0      0.00%    100.00% |           0      0.00%    100.00% |           0      0.00%    100.00% |           0      0.00%    100.00% |           0      0.00%    100.00% |           0      0.00%    100.00% |           0      0.00%    100.00% |           0      0.00%    100.00% |           0      0.00%    100.00% |           0      0.00%    100.00% |           0      0.00%    100.00% |           0      0.00%    100.00% |           0      0.00%    100.00% |           0      0.00%    100.00% |           0      0.00%    100.00% |           0      0.00%    100.00% |           0      0.00%    100.00% |           0      0.00%    100.00% |           0      0.00%    100.00% |           0      0.00%    100.00% |           0      0.00%    100.00%
system.ruby.SimicsNetworkPortInterface_Controller.A.MessageSend::total      3709558                      
system.ruby.SimicsNetworkPortInterface_Controller.A.MessageRecv |      807349     21.76%     21.76% |     1854779     50.00%     71.76% |      136228      3.67%     75.44% |      124028      3.34%     78.78% |      135885      3.66%     82.44% |      139704      3.77%     86.21% |      137641      3.71%     89.92% |      124755      3.36%     93.28% |      120576      3.25%     96.53% |      128613      3.47%    100.00% |           0      0.00%    100.00% |           0      0.00%    100.00% |           0      0.00%    100.00% |           0      0.00%    100.00% |           0      0.00%    100.00% |           0      0.00%    100.00% |           0      0.00%    100.00% |           0      0.00%    100.00% |           0      0.00%    100.00% |           0      0.00%    100.00% |           0      0.00%    100.00% |           0      0.00%    100.00% |           0      0.00%    100.00% |           0      0.00%    100.00% |           0      0.00%    100.00% |           0      0.00%    100.00% |           0      0.00%    100.00% |           0      0.00%    100.00% |           0      0.00%    100.00% |           0      0.00%    100.00% |           0      0.00%    100.00% |           0      0.00%    100.00%
system.ruby.SimicsNetworkPortInterface_Controller.A.MessageRecv::total      3709558                      
system.switch_cpus.kern.inst.arm                    0                       # number of arm instructions executed
system.switch_cpus.kern.inst.quiesce                0                       # number of quiesce instructions executed

---------- End Simulation Statistics   ----------
