
---------- Begin Simulation Statistics ----------
sim_seconds                                  0.130691                       # Number of seconds simulated
sim_ticks                                130691295000                       # Number of ticks simulated
final_tick                               5306859373500                       # Number of ticks from beginning of simulation (restored from checkpoints and never reset)
sim_freq                                 1000000000000                       # Frequency of simulated ticks
host_inst_rate                                  15990                       # Simulator instruction rate (inst/s)
host_op_rate                                    27605                       # Simulator op (including micro ops) rate (op/s)
host_tick_rate                               48926790                       # Simulator tick rate (ticks/s)
host_mem_usage                                3703264                       # Number of bytes of host memory used
host_seconds                                  2671.16                       # Real time elapsed on the host
sim_insts                                    42711246                       # Number of instructions simulated
sim_ops                                      73738148                       # Number of ops (including micro ops) simulated
system.voltage_domain.voltage                       1                       # Voltage in Volts
system.clk_domain.clock                           500                       # Clock period in ticks
system.mem_ctrls0.bytes_read::ruby.dir_cntrl0     21455296                       # Number of bytes read from this memory
system.mem_ctrls0.bytes_read::total          21455296                       # Number of bytes read from this memory
system.mem_ctrls0.bytes_written::ruby.dir_cntrl0     13550656                       # Number of bytes written to this memory
system.mem_ctrls0.bytes_written::total       13550656                       # Number of bytes written to this memory
system.mem_ctrls0.num_reads::ruby.dir_cntrl0       335239                       # Number of read requests responded to by this memory
system.mem_ctrls0.num_reads::total             335239                       # Number of read requests responded to by this memory
system.mem_ctrls0.num_writes::ruby.dir_cntrl0       211729                       # Number of write requests responded to by this memory
system.mem_ctrls0.num_writes::total            211729                       # Number of write requests responded to by this memory
system.mem_ctrls0.bw_read::ruby.dir_cntrl0    164167751                       # Total read bandwidth from this memory (bytes/s)
system.mem_ctrls0.bw_read::total            164167751                       # Total read bandwidth from this memory (bytes/s)
system.mem_ctrls0.bw_write::ruby.dir_cntrl0    103684457                       # Write bandwidth from this memory (bytes/s)
system.mem_ctrls0.bw_write::total           103684457                       # Write bandwidth from this memory (bytes/s)
system.mem_ctrls0.bw_total::ruby.dir_cntrl0    267852209                       # Total bandwidth to/from this memory (bytes/s)
system.mem_ctrls0.bw_total::total           267852209                       # Total bandwidth to/from this memory (bytes/s)
system.mem_ctrls0.readReqs                     335239                       # Number of read requests accepted
system.mem_ctrls0.writeReqs                    211729                       # Number of write requests accepted
system.mem_ctrls0.readBursts                   335239                       # Number of DRAM read bursts, including those serviced by the write queue
system.mem_ctrls0.writeBursts                  211729                       # Number of DRAM write bursts, including those merged in the write queue
system.mem_ctrls0.bytesReadDRAM              21454336                       # Total number of bytes read from DRAM
system.mem_ctrls0.bytesReadWrQ                    960                       # Total number of bytes read from write queue
system.mem_ctrls0.bytesWritten               13550400                       # Total number of bytes written to DRAM
system.mem_ctrls0.bytesReadSys               21455296                       # Total read bytes from the system interface side
system.mem_ctrls0.bytesWrittenSys            13550656                       # Total written bytes from the system interface side
system.mem_ctrls0.servicedByWrQ                    15                       # Number of DRAM read bursts serviced by the write queue
system.mem_ctrls0.mergedWrBursts                    0                       # Number of DRAM write bursts merged with an existing one
system.mem_ctrls0.neitherReadNorWriteReqs            0                       # Number of requests that are neither read nor write
system.mem_ctrls0.perBankRdBursts::0            20684                       # Per bank write bursts
system.mem_ctrls0.perBankRdBursts::1            21305                       # Per bank write bursts
system.mem_ctrls0.perBankRdBursts::2            20880                       # Per bank write bursts
system.mem_ctrls0.perBankRdBursts::3            21362                       # Per bank write bursts
system.mem_ctrls0.perBankRdBursts::4            20966                       # Per bank write bursts
system.mem_ctrls0.perBankRdBursts::5            21188                       # Per bank write bursts
system.mem_ctrls0.perBankRdBursts::6            21087                       # Per bank write bursts
system.mem_ctrls0.perBankRdBursts::7            21074                       # Per bank write bursts
system.mem_ctrls0.perBankRdBursts::8            20842                       # Per bank write bursts
system.mem_ctrls0.perBankRdBursts::9            21047                       # Per bank write bursts
system.mem_ctrls0.perBankRdBursts::10           20811                       # Per bank write bursts
system.mem_ctrls0.perBankRdBursts::11           21191                       # Per bank write bursts
system.mem_ctrls0.perBankRdBursts::12           20654                       # Per bank write bursts
system.mem_ctrls0.perBankRdBursts::13           20571                       # Per bank write bursts
system.mem_ctrls0.perBankRdBursts::14           20785                       # Per bank write bursts
system.mem_ctrls0.perBankRdBursts::15           20777                       # Per bank write bursts
system.mem_ctrls0.perBankWrBursts::0            13280                       # Per bank write bursts
system.mem_ctrls0.perBankWrBursts::1            13206                       # Per bank write bursts
system.mem_ctrls0.perBankWrBursts::2            13153                       # Per bank write bursts
system.mem_ctrls0.perBankWrBursts::3            13388                       # Per bank write bursts
system.mem_ctrls0.perBankWrBursts::4            13203                       # Per bank write bursts
system.mem_ctrls0.perBankWrBursts::5            13317                       # Per bank write bursts
system.mem_ctrls0.perBankWrBursts::6            13249                       # Per bank write bursts
system.mem_ctrls0.perBankWrBursts::7            13418                       # Per bank write bursts
system.mem_ctrls0.perBankWrBursts::8            13170                       # Per bank write bursts
system.mem_ctrls0.perBankWrBursts::9            13393                       # Per bank write bursts
system.mem_ctrls0.perBankWrBursts::10           13165                       # Per bank write bursts
system.mem_ctrls0.perBankWrBursts::11           13110                       # Per bank write bursts
system.mem_ctrls0.perBankWrBursts::12           13065                       # Per bank write bursts
system.mem_ctrls0.perBankWrBursts::13           13074                       # Per bank write bursts
system.mem_ctrls0.perBankWrBursts::14           13359                       # Per bank write bursts
system.mem_ctrls0.perBankWrBursts::15           13175                       # Per bank write bursts
system.mem_ctrls0.numRdRetry                    98163                       # Number of times read queue was full causing retry
system.mem_ctrls0.numWrRetry                     2969                       # Number of times write queue was full causing retry
system.mem_ctrls0.totGap                 130690752500                       # Total gap between requests
system.mem_ctrls0.readPktSize::0                    0                       # Read request sizes (log2)
system.mem_ctrls0.readPktSize::1                    0                       # Read request sizes (log2)
system.mem_ctrls0.readPktSize::2                    0                       # Read request sizes (log2)
system.mem_ctrls0.readPktSize::3                    0                       # Read request sizes (log2)
system.mem_ctrls0.readPktSize::4                    0                       # Read request sizes (log2)
system.mem_ctrls0.readPktSize::5                    0                       # Read request sizes (log2)
system.mem_ctrls0.readPktSize::6               335239                       # Read request sizes (log2)
system.mem_ctrls0.writePktSize::0                   0                       # Write request sizes (log2)
system.mem_ctrls0.writePktSize::1                   0                       # Write request sizes (log2)
system.mem_ctrls0.writePktSize::2                   0                       # Write request sizes (log2)
system.mem_ctrls0.writePktSize::3                   0                       # Write request sizes (log2)
system.mem_ctrls0.writePktSize::4                   0                       # Write request sizes (log2)
system.mem_ctrls0.writePktSize::5                   0                       # Write request sizes (log2)
system.mem_ctrls0.writePktSize::6              211729                       # Write request sizes (log2)
system.mem_ctrls0.rdQLenPdf::0                 175736                       # What read queue length does an incoming req see
system.mem_ctrls0.rdQLenPdf::1                   5186                       # What read queue length does an incoming req see
system.mem_ctrls0.rdQLenPdf::2                   2467                       # What read queue length does an incoming req see
system.mem_ctrls0.rdQLenPdf::3                    978                       # What read queue length does an incoming req see
system.mem_ctrls0.rdQLenPdf::4                   1085                       # What read queue length does an incoming req see
system.mem_ctrls0.rdQLenPdf::5                   1135                       # What read queue length does an incoming req see
system.mem_ctrls0.rdQLenPdf::6                   1248                       # What read queue length does an incoming req see
system.mem_ctrls0.rdQLenPdf::7                   1374                       # What read queue length does an incoming req see
system.mem_ctrls0.rdQLenPdf::8                   1468                       # What read queue length does an incoming req see
system.mem_ctrls0.rdQLenPdf::9                   1575                       # What read queue length does an incoming req see
system.mem_ctrls0.rdQLenPdf::10                  1688                       # What read queue length does an incoming req see
system.mem_ctrls0.rdQLenPdf::11                  1733                       # What read queue length does an incoming req see
system.mem_ctrls0.rdQLenPdf::12                  1790                       # What read queue length does an incoming req see
system.mem_ctrls0.rdQLenPdf::13                  1831                       # What read queue length does an incoming req see
system.mem_ctrls0.rdQLenPdf::14                  1829                       # What read queue length does an incoming req see
system.mem_ctrls0.rdQLenPdf::15                  1910                       # What read queue length does an incoming req see
system.mem_ctrls0.rdQLenPdf::16                  1888                       # What read queue length does an incoming req see
system.mem_ctrls0.rdQLenPdf::17                  1895                       # What read queue length does an incoming req see
system.mem_ctrls0.rdQLenPdf::18                  1807                       # What read queue length does an incoming req see
system.mem_ctrls0.rdQLenPdf::19                  1865                       # What read queue length does an incoming req see
system.mem_ctrls0.rdQLenPdf::20                  1922                       # What read queue length does an incoming req see
system.mem_ctrls0.rdQLenPdf::21                  1993                       # What read queue length does an incoming req see
system.mem_ctrls0.rdQLenPdf::22                  2107                       # What read queue length does an incoming req see
system.mem_ctrls0.rdQLenPdf::23                  2147                       # What read queue length does an incoming req see
system.mem_ctrls0.rdQLenPdf::24                  2166                       # What read queue length does an incoming req see
system.mem_ctrls0.rdQLenPdf::25                  2162                       # What read queue length does an incoming req see
system.mem_ctrls0.rdQLenPdf::26                  2104                       # What read queue length does an incoming req see
system.mem_ctrls0.rdQLenPdf::27                  2123                       # What read queue length does an incoming req see
system.mem_ctrls0.rdQLenPdf::28                  2239                       # What read queue length does an incoming req see
system.mem_ctrls0.rdQLenPdf::29                  2329                       # What read queue length does an incoming req see
system.mem_ctrls0.rdQLenPdf::30                  2410                       # What read queue length does an incoming req see
system.mem_ctrls0.rdQLenPdf::31                101034                       # What read queue length does an incoming req see
system.mem_ctrls0.wrQLenPdf::0                  37584                       # What write queue length does an incoming req see
system.mem_ctrls0.wrQLenPdf::1                  38543                       # What write queue length does an incoming req see
system.mem_ctrls0.wrQLenPdf::2                  39136                       # What write queue length does an incoming req see
system.mem_ctrls0.wrQLenPdf::3                  39291                       # What write queue length does an incoming req see
system.mem_ctrls0.wrQLenPdf::4                  39260                       # What write queue length does an incoming req see
system.mem_ctrls0.wrQLenPdf::5                   5468                       # What write queue length does an incoming req see
system.mem_ctrls0.wrQLenPdf::6                   5936                       # What write queue length does an incoming req see
system.mem_ctrls0.wrQLenPdf::7                   6511                       # What write queue length does an incoming req see
system.mem_ctrls0.bytesPerActivate::samples       153302                       # Bytes accessed per row activation
system.mem_ctrls0.bytesPerActivate::mean   228.326728                       # Bytes accessed per row activation
system.mem_ctrls0.bytesPerActivate::gmean   167.762417                       # Bytes accessed per row activation
system.mem_ctrls0.bytesPerActivate::stdev   188.772748                       # Bytes accessed per row activation
system.mem_ctrls0.bytesPerActivate::0-127        51891     33.85%     33.85% # Bytes accessed per row activation
system.mem_ctrls0.bytesPerActivate::128-255        30913     20.16%     54.01% # Bytes accessed per row activation
system.mem_ctrls0.bytesPerActivate::256-383        53336     34.79%     88.81% # Bytes accessed per row activation
system.mem_ctrls0.bytesPerActivate::384-511         6075      3.96%     92.77% # Bytes accessed per row activation
system.mem_ctrls0.bytesPerActivate::512-639         4059      2.65%     95.42% # Bytes accessed per row activation
system.mem_ctrls0.bytesPerActivate::640-767         2225      1.45%     96.87% # Bytes accessed per row activation
system.mem_ctrls0.bytesPerActivate::768-895         1340      0.87%     97.74% # Bytes accessed per row activation
system.mem_ctrls0.bytesPerActivate::896-1023          976      0.64%     98.38% # Bytes accessed per row activation
system.mem_ctrls0.bytesPerActivate::1024-1151         2487      1.62%    100.00% # Bytes accessed per row activation
system.mem_ctrls0.bytesPerActivate::total       153302                       # Bytes accessed per row activation
system.mem_ctrls0.rdPerTurnAround::samples        37849                       # Reads before turning the bus around for writes
system.mem_ctrls0.rdPerTurnAround::mean      8.855901                       # Reads before turning the bus around for writes
system.mem_ctrls0.rdPerTurnAround::stdev    23.998029                       # Reads before turning the bus around for writes
system.mem_ctrls0.rdPerTurnAround::0-127        37823     99.93%     99.93% # Reads before turning the bus around for writes
system.mem_ctrls0.rdPerTurnAround::128-255           25      0.07%    100.00% # Reads before turning the bus around for writes
system.mem_ctrls0.rdPerTurnAround::3968-4095            1      0.00%    100.00% # Reads before turning the bus around for writes
system.mem_ctrls0.rdPerTurnAround::total        37849                       # Reads before turning the bus around for writes
system.mem_ctrls0.wrPerTurnAround::samples        37849                       # Writes before turning the bus around for reads
system.mem_ctrls0.wrPerTurnAround::mean      5.593939                       # Writes before turning the bus around for reads
system.mem_ctrls0.wrPerTurnAround::gmean     5.406715                       # Writes before turning the bus around for reads
system.mem_ctrls0.wrPerTurnAround::stdev     1.888290                       # Writes before turning the bus around for reads
system.mem_ctrls0.wrPerTurnAround::4-7          34476     91.09%     91.09% # Writes before turning the bus around for reads
system.mem_ctrls0.wrPerTurnAround::8-11          2229      5.89%     96.98% # Writes before turning the bus around for reads
system.mem_ctrls0.wrPerTurnAround::12-15          713      1.88%     98.86% # Writes before turning the bus around for reads
system.mem_ctrls0.wrPerTurnAround::16-19          431      1.14%    100.00% # Writes before turning the bus around for reads
system.mem_ctrls0.wrPerTurnAround::total        37849                       # Writes before turning the bus around for reads
system.mem_ctrls0.totQLat                 33756878561                       # Total ticks spent queuing
system.mem_ctrls0.totMemAccLat            40042328561                       # Total ticks spent from burst creation until serviced by the DRAM
system.mem_ctrls0.totBusLat                1676120000                       # Total ticks spent in databus transfers
system.mem_ctrls0.avgQLat                   100699.47                       # Average queueing delay per DRAM burst
system.mem_ctrls0.avgBusLat                   5000.00                       # Average bus latency per DRAM burst
system.mem_ctrls0.avgMemAccLat              119449.47                       # Average memory access latency per DRAM burst
system.mem_ctrls0.avgRdBW                      164.16                       # Average DRAM read bandwidth in MiByte/s
system.mem_ctrls0.avgWrBW                      103.68                       # Average achieved write bandwidth in MiByte/s
system.mem_ctrls0.avgRdBWSys                   164.17                       # Average system read bandwidth in MiByte/s
system.mem_ctrls0.avgWrBWSys                   103.68                       # Average system write bandwidth in MiByte/s
system.mem_ctrls0.peakBW                     12800.00                       # Theoretical peak bandwidth in MiByte/s
system.mem_ctrls0.busUtil                        2.09                       # Data bus utilization in percentage
system.mem_ctrls0.busUtilRead                    1.28                       # Data bus utilization in percentage for reads
system.mem_ctrls0.busUtilWrite                   0.81                       # Data bus utilization in percentage for writes
system.mem_ctrls0.avgRdQLen                      1.27                       # Average read queue length when enqueuing
system.mem_ctrls0.avgWrQLen                      2.96                       # Average write queue length when enqueuing
system.mem_ctrls0.readRowHits                  254614                       # Number of row buffer hits during reads
system.mem_ctrls0.writeRowHits                 139023                       # Number of row buffer hits during writes
system.mem_ctrls0.readRowHitRate                75.95                       # Row buffer hit rate for reads
system.mem_ctrls0.writeRowHitRate               65.66                       # Row buffer hit rate for writes
system.mem_ctrls0.avgGap                    238936.74                       # Average gap between requests
system.mem_ctrls0.pageHitRate                   71.97                       # Row buffer hit rate, read and write combined
system.mem_ctrls0.memoryStateTime::IDLE   28042331500                       # Time in different power states
system.mem_ctrls0.memoryStateTime::REF     4363840000                       # Time in different power states
system.mem_ctrls0.memoryStateTime::PRE_PDN            0                       # Time in different power states
system.mem_ctrls0.memoryStateTime::ACT    98279461500                       # Time in different power states
system.mem_ctrls0.memoryStateTime::ACT_PDN            0                       # Time in different power states
system.mem_ctrls0.actEnergy::0              585582480                       # Energy for activate commands per rank (pJ)
system.mem_ctrls0.actEnergy::1              573335280                       # Energy for activate commands per rank (pJ)
system.mem_ctrls0.preEnergy::0              319514250                       # Energy for precharge commands per rank (pJ)
system.mem_ctrls0.preEnergy::1              312831750                       # Energy for precharge commands per rank (pJ)
system.mem_ctrls0.readEnergy::0            1314315600                       # Energy for read commands per rank (pJ)
system.mem_ctrls0.readEnergy::1            1300018200                       # Energy for read commands per rank (pJ)
system.mem_ctrls0.writeEnergy::0            688266720                       # Energy for write commands per rank (pJ)
system.mem_ctrls0.writeEnergy::1            683614080                       # Energy for write commands per rank (pJ)
system.mem_ctrls0.refreshEnergy::0         8535671040                       # Energy for refresh commands per rank (pJ)
system.mem_ctrls0.refreshEnergy::1         8535671040                       # Energy for refresh commands per rank (pJ)
system.mem_ctrls0.actBackEnergy::0        49693540500                       # Energy for active background per rank (pJ)
system.mem_ctrls0.actBackEnergy::1        49260954105                       # Energy for active background per rank (pJ)
system.mem_ctrls0.preBackEnergy::0        34819983000                       # Energy for precharge background per rank (pJ)
system.mem_ctrls0.preBackEnergy::1        35199444750                       # Energy for precharge background per rank (pJ)
system.mem_ctrls0.totalEnergy::0          95956873590                       # Total energy per rank (pJ)
system.mem_ctrls0.totalEnergy::1          95865869205                       # Total energy per rank (pJ)
system.mem_ctrls0.averagePower::0          734.262605                       # Core power per rank (mW)
system.mem_ctrls0.averagePower::1          733.566239                       # Core power per rank (mW)
system.mem_ctrls1.bytes_read::ruby.dir_cntrl1     20799296                       # Number of bytes read from this memory
system.mem_ctrls1.bytes_read::total          20799296                       # Number of bytes read from this memory
system.mem_ctrls1.bytes_written::ruby.dir_cntrl1     12923584                       # Number of bytes written to this memory
system.mem_ctrls1.bytes_written::total       12923584                       # Number of bytes written to this memory
system.mem_ctrls1.num_reads::ruby.dir_cntrl1       324989                       # Number of read requests responded to by this memory
system.mem_ctrls1.num_reads::total             324989                       # Number of read requests responded to by this memory
system.mem_ctrls1.num_writes::ruby.dir_cntrl1       201931                       # Number of write requests responded to by this memory
system.mem_ctrls1.num_writes::total            201931                       # Number of write requests responded to by this memory
system.mem_ctrls1.bw_read::ruby.dir_cntrl1    159148289                       # Total read bandwidth from this memory (bytes/s)
system.mem_ctrls1.bw_read::total            159148289                       # Total read bandwidth from this memory (bytes/s)
system.mem_ctrls1.bw_write::ruby.dir_cntrl1     98886341                       # Write bandwidth from this memory (bytes/s)
system.mem_ctrls1.bw_write::total            98886341                       # Write bandwidth from this memory (bytes/s)
system.mem_ctrls1.bw_total::ruby.dir_cntrl1    258034630                       # Total bandwidth to/from this memory (bytes/s)
system.mem_ctrls1.bw_total::total           258034630                       # Total bandwidth to/from this memory (bytes/s)
system.mem_ctrls1.readReqs                     324989                       # Number of read requests accepted
system.mem_ctrls1.writeReqs                    201931                       # Number of write requests accepted
system.mem_ctrls1.readBursts                   324989                       # Number of DRAM read bursts, including those serviced by the write queue
system.mem_ctrls1.writeBursts                  201931                       # Number of DRAM write bursts, including those merged in the write queue
system.mem_ctrls1.bytesReadDRAM              20798336                       # Total number of bytes read from DRAM
system.mem_ctrls1.bytesReadWrQ                    960                       # Total number of bytes read from write queue
system.mem_ctrls1.bytesWritten               12923520                       # Total number of bytes written to DRAM
system.mem_ctrls1.bytesReadSys               20799296                       # Total read bytes from the system interface side
system.mem_ctrls1.bytesWrittenSys            12923584                       # Total written bytes from the system interface side
system.mem_ctrls1.servicedByWrQ                    15                       # Number of DRAM read bursts serviced by the write queue
system.mem_ctrls1.mergedWrBursts                    0                       # Number of DRAM write bursts merged with an existing one
system.mem_ctrls1.neitherReadNorWriteReqs            0                       # Number of requests that are neither read nor write
system.mem_ctrls1.perBankRdBursts::0            20059                       # Per bank write bursts
system.mem_ctrls1.perBankRdBursts::1            20698                       # Per bank write bursts
system.mem_ctrls1.perBankRdBursts::2            20233                       # Per bank write bursts
system.mem_ctrls1.perBankRdBursts::3            20682                       # Per bank write bursts
system.mem_ctrls1.perBankRdBursts::4            20378                       # Per bank write bursts
system.mem_ctrls1.perBankRdBursts::5            20543                       # Per bank write bursts
system.mem_ctrls1.perBankRdBursts::6            20444                       # Per bank write bursts
system.mem_ctrls1.perBankRdBursts::7            20520                       # Per bank write bursts
system.mem_ctrls1.perBankRdBursts::8            20190                       # Per bank write bursts
system.mem_ctrls1.perBankRdBursts::9            20382                       # Per bank write bursts
system.mem_ctrls1.perBankRdBursts::10           20149                       # Per bank write bursts
system.mem_ctrls1.perBankRdBursts::11           20570                       # Per bank write bursts
system.mem_ctrls1.perBankRdBursts::12           20018                       # Per bank write bursts
system.mem_ctrls1.perBankRdBursts::13           19891                       # Per bank write bursts
system.mem_ctrls1.perBankRdBursts::14           20084                       # Per bank write bursts
system.mem_ctrls1.perBankRdBursts::15           20133                       # Per bank write bursts
system.mem_ctrls1.perBankWrBursts::0            12669                       # Per bank write bursts
system.mem_ctrls1.perBankWrBursts::1            12613                       # Per bank write bursts
system.mem_ctrls1.perBankWrBursts::2            12546                       # Per bank write bursts
system.mem_ctrls1.perBankWrBursts::3            12779                       # Per bank write bursts
system.mem_ctrls1.perBankWrBursts::4            12597                       # Per bank write bursts
system.mem_ctrls1.perBankWrBursts::5            12718                       # Per bank write bursts
system.mem_ctrls1.perBankWrBursts::6            12630                       # Per bank write bursts
system.mem_ctrls1.perBankWrBursts::7            12795                       # Per bank write bursts
system.mem_ctrls1.perBankWrBursts::8            12558                       # Per bank write bursts
system.mem_ctrls1.perBankWrBursts::9            12771                       # Per bank write bursts
system.mem_ctrls1.perBankWrBursts::10           12553                       # Per bank write bursts
system.mem_ctrls1.perBankWrBursts::11           12500                       # Per bank write bursts
system.mem_ctrls1.perBankWrBursts::12           12462                       # Per bank write bursts
system.mem_ctrls1.perBankWrBursts::13           12462                       # Per bank write bursts
system.mem_ctrls1.perBankWrBursts::14           12703                       # Per bank write bursts
system.mem_ctrls1.perBankWrBursts::15           12574                       # Per bank write bursts
system.mem_ctrls1.numRdRetry                    64076                       # Number of times read queue was full causing retry
system.mem_ctrls1.numWrRetry                     2719                       # Number of times write queue was full causing retry
system.mem_ctrls1.totGap                 130690471000                       # Total gap between requests
system.mem_ctrls1.readPktSize::0                    0                       # Read request sizes (log2)
system.mem_ctrls1.readPktSize::1                    0                       # Read request sizes (log2)
system.mem_ctrls1.readPktSize::2                    0                       # Read request sizes (log2)
system.mem_ctrls1.readPktSize::3                    0                       # Read request sizes (log2)
system.mem_ctrls1.readPktSize::4                    0                       # Read request sizes (log2)
system.mem_ctrls1.readPktSize::5                    0                       # Read request sizes (log2)
system.mem_ctrls1.readPktSize::6               324989                       # Read request sizes (log2)
system.mem_ctrls1.writePktSize::0                   0                       # Write request sizes (log2)
system.mem_ctrls1.writePktSize::1                   0                       # Write request sizes (log2)
system.mem_ctrls1.writePktSize::2                   0                       # Write request sizes (log2)
system.mem_ctrls1.writePktSize::3                   0                       # Write request sizes (log2)
system.mem_ctrls1.writePktSize::4                   0                       # Write request sizes (log2)
system.mem_ctrls1.writePktSize::5                   0                       # Write request sizes (log2)
system.mem_ctrls1.writePktSize::6              201931                       # Write request sizes (log2)
system.mem_ctrls1.rdQLenPdf::0                 171242                       # What read queue length does an incoming req see
system.mem_ctrls1.rdQLenPdf::1                   1880                       # What read queue length does an incoming req see
system.mem_ctrls1.rdQLenPdf::2                   1560                       # What read queue length does an incoming req see
system.mem_ctrls1.rdQLenPdf::3                   1671                       # What read queue length does an incoming req see
system.mem_ctrls1.rdQLenPdf::4                   1766                       # What read queue length does an incoming req see
system.mem_ctrls1.rdQLenPdf::5                   1941                       # What read queue length does an incoming req see
system.mem_ctrls1.rdQLenPdf::6                   1934                       # What read queue length does an incoming req see
system.mem_ctrls1.rdQLenPdf::7                   2128                       # What read queue length does an incoming req see
system.mem_ctrls1.rdQLenPdf::8                   2282                       # What read queue length does an incoming req see
system.mem_ctrls1.rdQLenPdf::9                   2534                       # What read queue length does an incoming req see
system.mem_ctrls1.rdQLenPdf::10                  2547                       # What read queue length does an incoming req see
system.mem_ctrls1.rdQLenPdf::11                  2711                       # What read queue length does an incoming req see
system.mem_ctrls1.rdQLenPdf::12                  2835                       # What read queue length does an incoming req see
system.mem_ctrls1.rdQLenPdf::13                  2951                       # What read queue length does an incoming req see
system.mem_ctrls1.rdQLenPdf::14                  3048                       # What read queue length does an incoming req see
system.mem_ctrls1.rdQLenPdf::15                  3044                       # What read queue length does an incoming req see
system.mem_ctrls1.rdQLenPdf::16                  3124                       # What read queue length does an incoming req see
system.mem_ctrls1.rdQLenPdf::17                  3194                       # What read queue length does an incoming req see
system.mem_ctrls1.rdQLenPdf::18                  3212                       # What read queue length does an incoming req see
system.mem_ctrls1.rdQLenPdf::19                  3250                       # What read queue length does an incoming req see
system.mem_ctrls1.rdQLenPdf::20                  3338                       # What read queue length does an incoming req see
system.mem_ctrls1.rdQLenPdf::21                  3449                       # What read queue length does an incoming req see
system.mem_ctrls1.rdQLenPdf::22                  3243                       # What read queue length does an incoming req see
system.mem_ctrls1.rdQLenPdf::23                  3427                       # What read queue length does an incoming req see
system.mem_ctrls1.rdQLenPdf::24                  3362                       # What read queue length does an incoming req see
system.mem_ctrls1.rdQLenPdf::25                  3470                       # What read queue length does an incoming req see
system.mem_ctrls1.rdQLenPdf::26                  3537                       # What read queue length does an incoming req see
system.mem_ctrls1.rdQLenPdf::27                  3397                       # What read queue length does an incoming req see
system.mem_ctrls1.rdQLenPdf::28                  3523                       # What read queue length does an incoming req see
system.mem_ctrls1.rdQLenPdf::29                  3613                       # What read queue length does an incoming req see
system.mem_ctrls1.rdQLenPdf::30                  3665                       # What read queue length does an incoming req see
system.mem_ctrls1.rdQLenPdf::31                 68096                       # What read queue length does an incoming req see
system.mem_ctrls1.wrQLenPdf::0                  35812                       # What write queue length does an incoming req see
system.mem_ctrls1.wrQLenPdf::1                  36823                       # What write queue length does an incoming req see
system.mem_ctrls1.wrQLenPdf::2                  37190                       # What write queue length does an incoming req see
system.mem_ctrls1.wrQLenPdf::3                  37376                       # What write queue length does an incoming req see
system.mem_ctrls1.wrQLenPdf::4                  37600                       # What write queue length does an incoming req see
system.mem_ctrls1.wrQLenPdf::5                   5414                       # What write queue length does an incoming req see
system.mem_ctrls1.wrQLenPdf::6                   5781                       # What write queue length does an incoming req see
system.mem_ctrls1.wrQLenPdf::7                   5935                       # What write queue length does an incoming req see
system.mem_ctrls1.bytesPerActivate::samples       126922                       # Bytes accessed per row activation
system.mem_ctrls1.bytesPerActivate::mean   265.683554                       # Bytes accessed per row activation
system.mem_ctrls1.bytesPerActivate::gmean   206.301927                       # Bytes accessed per row activation
system.mem_ctrls1.bytesPerActivate::stdev   195.277666                       # Bytes accessed per row activation
system.mem_ctrls1.bytesPerActivate::0-127        25520     20.11%     20.11% # Bytes accessed per row activation
system.mem_ctrls1.bytesPerActivate::128-255        30016     23.65%     43.76% # Bytes accessed per row activation
system.mem_ctrls1.bytesPerActivate::256-383        53164     41.89%     85.64% # Bytes accessed per row activation
system.mem_ctrls1.bytesPerActivate::384-511         6137      4.84%     90.48% # Bytes accessed per row activation
system.mem_ctrls1.bytesPerActivate::512-639         4508      3.55%     94.03% # Bytes accessed per row activation
system.mem_ctrls1.bytesPerActivate::640-767         2220      1.75%     95.78% # Bytes accessed per row activation
system.mem_ctrls1.bytesPerActivate::768-895         1438      1.13%     96.91% # Bytes accessed per row activation
system.mem_ctrls1.bytesPerActivate::896-1023         1041      0.82%     97.73% # Bytes accessed per row activation
system.mem_ctrls1.bytesPerActivate::1024-1151         2878      2.27%    100.00% # Bytes accessed per row activation
system.mem_ctrls1.bytesPerActivate::total       126922                       # Bytes accessed per row activation
system.mem_ctrls1.rdPerTurnAround::samples        36135                       # Reads before turning the bus around for writes
system.mem_ctrls1.rdPerTurnAround::mean      8.993220                       # Reads before turning the bus around for writes
system.mem_ctrls1.rdPerTurnAround::stdev    21.231418                       # Reads before turning the bus around for writes
system.mem_ctrls1.rdPerTurnAround::0-127        36092     99.88%     99.88% # Reads before turning the bus around for writes
system.mem_ctrls1.rdPerTurnAround::128-255           41      0.11%     99.99% # Reads before turning the bus around for writes
system.mem_ctrls1.rdPerTurnAround::1152-1279            1      0.00%    100.00% # Reads before turning the bus around for writes
system.mem_ctrls1.rdPerTurnAround::2816-2943            1      0.00%    100.00% # Reads before turning the bus around for writes
system.mem_ctrls1.rdPerTurnAround::total        36135                       # Reads before turning the bus around for writes
system.mem_ctrls1.wrPerTurnAround::samples        36135                       # Writes before turning the bus around for reads
system.mem_ctrls1.wrPerTurnAround::mean      5.588211                       # Writes before turning the bus around for reads
system.mem_ctrls1.wrPerTurnAround::gmean     5.394753                       # Writes before turning the bus around for reads
system.mem_ctrls1.wrPerTurnAround::stdev     1.930495                       # Writes before turning the bus around for reads
system.mem_ctrls1.wrPerTurnAround::4-7          32848     90.90%     90.90% # Writes before turning the bus around for reads
system.mem_ctrls1.wrPerTurnAround::8-11          2120      5.87%     96.77% # Writes before turning the bus around for reads
system.mem_ctrls1.wrPerTurnAround::12-15          708      1.96%     98.73% # Writes before turning the bus around for reads
system.mem_ctrls1.wrPerTurnAround::16-19          459      1.27%    100.00% # Writes before turning the bus around for reads
system.mem_ctrls1.wrPerTurnAround::total        36135                       # Writes before turning the bus around for reads
system.mem_ctrls1.totQLat                 29206949652                       # Total ticks spent queuing
system.mem_ctrls1.totMemAccLat            35300212152                       # Total ticks spent from burst creation until serviced by the DRAM
system.mem_ctrls1.totBusLat                1624870000                       # Total ticks spent in databus transfers
system.mem_ctrls1.avgQLat                    89874.73                       # Average queueing delay per DRAM burst
system.mem_ctrls1.avgBusLat                   5000.00                       # Average bus latency per DRAM burst
system.mem_ctrls1.avgMemAccLat              108624.73                       # Average memory access latency per DRAM burst
system.mem_ctrls1.avgRdBW                      159.14                       # Average DRAM read bandwidth in MiByte/s
system.mem_ctrls1.avgWrBW                       98.89                       # Average achieved write bandwidth in MiByte/s
system.mem_ctrls1.avgRdBWSys                   159.15                       # Average system read bandwidth in MiByte/s
system.mem_ctrls1.avgWrBWSys                    98.89                       # Average system write bandwidth in MiByte/s
system.mem_ctrls1.peakBW                     12800.00                       # Theoretical peak bandwidth in MiByte/s
system.mem_ctrls1.busUtil                        2.02                       # Data bus utilization in percentage
system.mem_ctrls1.busUtilRead                    1.24                       # Data bus utilization in percentage for reads
system.mem_ctrls1.busUtilWrite                   0.77                       # Data bus utilization in percentage for writes
system.mem_ctrls1.avgRdQLen                      1.24                       # Average read queue length when enqueuing
system.mem_ctrls1.avgWrQLen                      2.98                       # Average write queue length when enqueuing
system.mem_ctrls1.readRowHits                  255137                       # Number of row buffer hits during reads
system.mem_ctrls1.writeRowHits                 144838                       # Number of row buffer hits during writes
system.mem_ctrls1.readRowHitRate                78.51                       # Row buffer hit rate for reads
system.mem_ctrls1.writeRowHitRate               71.73                       # Row buffer hit rate for writes
system.mem_ctrls1.avgGap                    248027.16                       # Average gap between requests
system.mem_ctrls1.pageHitRate                   75.91                       # Row buffer hit rate, read and write combined
system.mem_ctrls1.memoryStateTime::IDLE   28550089500                       # Time in different power states
system.mem_ctrls1.memoryStateTime::REF     4363840000                       # Time in different power states
system.mem_ctrls1.memoryStateTime::PRE_PDN            0                       # Time in different power states
system.mem_ctrls1.memoryStateTime::ACT    97771714500                       # Time in different power states
system.mem_ctrls1.memoryStateTime::ACT_PDN            0                       # Time in different power states
system.mem_ctrls1.actEnergy::0              487476360                       # Energy for activate commands per rank (pJ)
system.mem_ctrls1.actEnergy::1              471985920                       # Energy for activate commands per rank (pJ)
system.mem_ctrls1.preEnergy::0              265984125                       # Energy for precharge commands per rank (pJ)
system.mem_ctrls1.preEnergy::1              257532000                       # Energy for precharge commands per rank (pJ)
system.mem_ctrls1.readEnergy::0            1275401400                       # Energy for read commands per rank (pJ)
system.mem_ctrls1.readEnergy::1            1259005800                       # Energy for read commands per rank (pJ)
system.mem_ctrls1.writeEnergy::0            656722080                       # Energy for write commands per rank (pJ)
system.mem_ctrls1.writeEnergy::1            651654720                       # Energy for write commands per rank (pJ)
system.mem_ctrls1.refreshEnergy::0         8535671040                       # Energy for refresh commands per rank (pJ)
system.mem_ctrls1.refreshEnergy::1         8535671040                       # Energy for refresh commands per rank (pJ)
system.mem_ctrls1.actBackEnergy::0        49131915795                       # Energy for active background per rank (pJ)
system.mem_ctrls1.actBackEnergy::1        48191927085                       # Energy for active background per rank (pJ)
system.mem_ctrls1.preBackEnergy::0        35312636250                       # Energy for precharge background per rank (pJ)
system.mem_ctrls1.preBackEnergy::1        36137187750                       # Energy for precharge background per rank (pJ)
system.mem_ctrls1.totalEnergy::0          95665807050                       # Total energy per rank (pJ)
system.mem_ctrls1.totalEnergy::1          95504964315                       # Total energy per rank (pJ)
system.mem_ctrls1.averagePower::0          732.035362                       # Core power per rank (mW)
system.mem_ctrls1.averagePower::1          730.804593                       # Core power per rank (mW)
system.mem_ctrls2.bytes_read::ruby.dir_cntrl2     20797376                       # Number of bytes read from this memory
system.mem_ctrls2.bytes_read::total          20797376                       # Number of bytes read from this memory
system.mem_ctrls2.bytes_written::ruby.dir_cntrl2     12923968                       # Number of bytes written to this memory
system.mem_ctrls2.bytes_written::total       12923968                       # Number of bytes written to this memory
system.mem_ctrls2.num_reads::ruby.dir_cntrl2       324959                       # Number of read requests responded to by this memory
system.mem_ctrls2.num_reads::total             324959                       # Number of read requests responded to by this memory
system.mem_ctrls2.num_writes::ruby.dir_cntrl2       201937                       # Number of write requests responded to by this memory
system.mem_ctrls2.num_writes::total            201937                       # Number of write requests responded to by this memory
system.mem_ctrls2.bw_read::ruby.dir_cntrl2    159133598                       # Total read bandwidth from this memory (bytes/s)
system.mem_ctrls2.bw_read::total            159133598                       # Total read bandwidth from this memory (bytes/s)
system.mem_ctrls2.bw_write::ruby.dir_cntrl2     98889280                       # Write bandwidth from this memory (bytes/s)
system.mem_ctrls2.bw_write::total            98889280                       # Write bandwidth from this memory (bytes/s)
system.mem_ctrls2.bw_total::ruby.dir_cntrl2    258022877                       # Total bandwidth to/from this memory (bytes/s)
system.mem_ctrls2.bw_total::total           258022877                       # Total bandwidth to/from this memory (bytes/s)
system.mem_ctrls2.readReqs                     324959                       # Number of read requests accepted
system.mem_ctrls2.writeReqs                    201937                       # Number of write requests accepted
system.mem_ctrls2.readBursts                   324959                       # Number of DRAM read bursts, including those serviced by the write queue
system.mem_ctrls2.writeBursts                  201937                       # Number of DRAM write bursts, including those merged in the write queue
system.mem_ctrls2.bytesReadDRAM              20796416                       # Total number of bytes read from DRAM
system.mem_ctrls2.bytesReadWrQ                    960                       # Total number of bytes read from write queue
system.mem_ctrls2.bytesWritten               12923776                       # Total number of bytes written to DRAM
system.mem_ctrls2.bytesReadSys               20797376                       # Total read bytes from the system interface side
system.mem_ctrls2.bytesWrittenSys            12923968                       # Total written bytes from the system interface side
system.mem_ctrls2.servicedByWrQ                    15                       # Number of DRAM read bursts serviced by the write queue
system.mem_ctrls2.mergedWrBursts                    0                       # Number of DRAM write bursts merged with an existing one
system.mem_ctrls2.neitherReadNorWriteReqs            0                       # Number of requests that are neither read nor write
system.mem_ctrls2.perBankRdBursts::0            20056                       # Per bank write bursts
system.mem_ctrls2.perBankRdBursts::1            20678                       # Per bank write bursts
system.mem_ctrls2.perBankRdBursts::2            20244                       # Per bank write bursts
system.mem_ctrls2.perBankRdBursts::3            20728                       # Per bank write bursts
system.mem_ctrls2.perBankRdBursts::4            20380                       # Per bank write bursts
system.mem_ctrls2.perBankRdBursts::5            20527                       # Per bank write bursts
system.mem_ctrls2.perBankRdBursts::6            20415                       # Per bank write bursts
system.mem_ctrls2.perBankRdBursts::7            20490                       # Per bank write bursts
system.mem_ctrls2.perBankRdBursts::8            20154                       # Per bank write bursts
system.mem_ctrls2.perBankRdBursts::9            20392                       # Per bank write bursts
system.mem_ctrls2.perBankRdBursts::10           20158                       # Per bank write bursts
system.mem_ctrls2.perBankRdBursts::11           20587                       # Per bank write bursts
system.mem_ctrls2.perBankRdBursts::12           20034                       # Per bank write bursts
system.mem_ctrls2.perBankRdBursts::13           19855                       # Per bank write bursts
system.mem_ctrls2.perBankRdBursts::14           20077                       # Per bank write bursts
system.mem_ctrls2.perBankRdBursts::15           20169                       # Per bank write bursts
system.mem_ctrls2.perBankWrBursts::0            12663                       # Per bank write bursts
system.mem_ctrls2.perBankWrBursts::1            12612                       # Per bank write bursts
system.mem_ctrls2.perBankWrBursts::2            12542                       # Per bank write bursts
system.mem_ctrls2.perBankWrBursts::3            12787                       # Per bank write bursts
system.mem_ctrls2.perBankWrBursts::4            12596                       # Per bank write bursts
system.mem_ctrls2.perBankWrBursts::5            12702                       # Per bank write bursts
system.mem_ctrls2.perBankWrBursts::6            12638                       # Per bank write bursts
system.mem_ctrls2.perBankWrBursts::7            12794                       # Per bank write bursts
system.mem_ctrls2.perBankWrBursts::8            12542                       # Per bank write bursts
system.mem_ctrls2.perBankWrBursts::9            12777                       # Per bank write bursts
system.mem_ctrls2.perBankWrBursts::10           12550                       # Per bank write bursts
system.mem_ctrls2.perBankWrBursts::11           12514                       # Per bank write bursts
system.mem_ctrls2.perBankWrBursts::12           12468                       # Per bank write bursts
system.mem_ctrls2.perBankWrBursts::13           12455                       # Per bank write bursts
system.mem_ctrls2.perBankWrBursts::14           12707                       # Per bank write bursts
system.mem_ctrls2.perBankWrBursts::15           12587                       # Per bank write bursts
system.mem_ctrls2.numRdRetry                    61283                       # Number of times read queue was full causing retry
system.mem_ctrls2.numWrRetry                     2304                       # Number of times write queue was full causing retry
system.mem_ctrls2.totGap                 130691205000                       # Total gap between requests
system.mem_ctrls2.readPktSize::0                    0                       # Read request sizes (log2)
system.mem_ctrls2.readPktSize::1                    0                       # Read request sizes (log2)
system.mem_ctrls2.readPktSize::2                    0                       # Read request sizes (log2)
system.mem_ctrls2.readPktSize::3                    0                       # Read request sizes (log2)
system.mem_ctrls2.readPktSize::4                    0                       # Read request sizes (log2)
system.mem_ctrls2.readPktSize::5                    0                       # Read request sizes (log2)
system.mem_ctrls2.readPktSize::6               324959                       # Read request sizes (log2)
system.mem_ctrls2.writePktSize::0                   0                       # Write request sizes (log2)
system.mem_ctrls2.writePktSize::1                   0                       # Write request sizes (log2)
system.mem_ctrls2.writePktSize::2                   0                       # Write request sizes (log2)
system.mem_ctrls2.writePktSize::3                   0                       # Write request sizes (log2)
system.mem_ctrls2.writePktSize::4                   0                       # Write request sizes (log2)
system.mem_ctrls2.writePktSize::5                   0                       # Write request sizes (log2)
system.mem_ctrls2.writePktSize::6              201937                       # Write request sizes (log2)
system.mem_ctrls2.rdQLenPdf::0                 171421                       # What read queue length does an incoming req see
system.mem_ctrls2.rdQLenPdf::1                   1781                       # What read queue length does an incoming req see
system.mem_ctrls2.rdQLenPdf::2                   1585                       # What read queue length does an incoming req see
system.mem_ctrls2.rdQLenPdf::3                   1661                       # What read queue length does an incoming req see
system.mem_ctrls2.rdQLenPdf::4                   1745                       # What read queue length does an incoming req see
system.mem_ctrls2.rdQLenPdf::5                   1955                       # What read queue length does an incoming req see
system.mem_ctrls2.rdQLenPdf::6                   2088                       # What read queue length does an incoming req see
system.mem_ctrls2.rdQLenPdf::7                   2132                       # What read queue length does an incoming req see
system.mem_ctrls2.rdQLenPdf::8                   2208                       # What read queue length does an incoming req see
system.mem_ctrls2.rdQLenPdf::9                   2448                       # What read queue length does an incoming req see
system.mem_ctrls2.rdQLenPdf::10                  2564                       # What read queue length does an incoming req see
system.mem_ctrls2.rdQLenPdf::11                  2779                       # What read queue length does an incoming req see
system.mem_ctrls2.rdQLenPdf::12                  2858                       # What read queue length does an incoming req see
system.mem_ctrls2.rdQLenPdf::13                  2939                       # What read queue length does an incoming req see
system.mem_ctrls2.rdQLenPdf::14                  3062                       # What read queue length does an incoming req see
system.mem_ctrls2.rdQLenPdf::15                  3088                       # What read queue length does an incoming req see
system.mem_ctrls2.rdQLenPdf::16                  3224                       # What read queue length does an incoming req see
system.mem_ctrls2.rdQLenPdf::17                  3337                       # What read queue length does an incoming req see
system.mem_ctrls2.rdQLenPdf::18                  3356                       # What read queue length does an incoming req see
system.mem_ctrls2.rdQLenPdf::19                  3366                       # What read queue length does an incoming req see
system.mem_ctrls2.rdQLenPdf::20                  3349                       # What read queue length does an incoming req see
system.mem_ctrls2.rdQLenPdf::21                  3363                       # What read queue length does an incoming req see
system.mem_ctrls2.rdQLenPdf::22                  3354                       # What read queue length does an incoming req see
system.mem_ctrls2.rdQLenPdf::23                  3436                       # What read queue length does an incoming req see
system.mem_ctrls2.rdQLenPdf::24                  3490                       # What read queue length does an incoming req see
system.mem_ctrls2.rdQLenPdf::25                  3543                       # What read queue length does an incoming req see
system.mem_ctrls2.rdQLenPdf::26                  3710                       # What read queue length does an incoming req see
system.mem_ctrls2.rdQLenPdf::27                  3757                       # What read queue length does an incoming req see
system.mem_ctrls2.rdQLenPdf::28                  3774                       # What read queue length does an incoming req see
system.mem_ctrls2.rdQLenPdf::29                  3909                       # What read queue length does an incoming req see
system.mem_ctrls2.rdQLenPdf::30                  4098                       # What read queue length does an incoming req see
system.mem_ctrls2.rdQLenPdf::31                 65564                       # What read queue length does an incoming req see
system.mem_ctrls2.wrQLenPdf::0                  35873                       # What write queue length does an incoming req see
system.mem_ctrls2.wrQLenPdf::1                  36826                       # What write queue length does an incoming req see
system.mem_ctrls2.wrQLenPdf::2                  37232                       # What write queue length does an incoming req see
system.mem_ctrls2.wrQLenPdf::3                  37511                       # What write queue length does an incoming req see
system.mem_ctrls2.wrQLenPdf::4                  37679                       # What write queue length does an incoming req see
system.mem_ctrls2.wrQLenPdf::5                   5590                       # What write queue length does an incoming req see
system.mem_ctrls2.wrQLenPdf::6                   5903                       # What write queue length does an incoming req see
system.mem_ctrls2.wrQLenPdf::7                   5323                       # What write queue length does an incoming req see
system.mem_ctrls2.bytesPerActivate::samples       126642                       # Bytes accessed per row activation
system.mem_ctrls2.bytesPerActivate::mean   266.249238                       # Bytes accessed per row activation
system.mem_ctrls2.bytesPerActivate::gmean   206.719318                       # Bytes accessed per row activation
system.mem_ctrls2.bytesPerActivate::stdev   195.740177                       # Bytes accessed per row activation
system.mem_ctrls2.bytesPerActivate::0-127        25582     20.20%     20.20% # Bytes accessed per row activation
system.mem_ctrls2.bytesPerActivate::128-255        29197     23.05%     43.26% # Bytes accessed per row activation
system.mem_ctrls2.bytesPerActivate::256-383        53727     42.42%     85.68% # Bytes accessed per row activation
system.mem_ctrls2.bytesPerActivate::384-511         6130      4.84%     90.52% # Bytes accessed per row activation
system.mem_ctrls2.bytesPerActivate::512-639         4468      3.53%     94.05% # Bytes accessed per row activation
system.mem_ctrls2.bytesPerActivate::640-767         2148      1.70%     95.74% # Bytes accessed per row activation
system.mem_ctrls2.bytesPerActivate::768-895         1414      1.12%     96.86% # Bytes accessed per row activation
system.mem_ctrls2.bytesPerActivate::896-1023          966      0.76%     97.62% # Bytes accessed per row activation
system.mem_ctrls2.bytesPerActivate::1024-1151         3010      2.38%    100.00% # Bytes accessed per row activation
system.mem_ctrls2.bytesPerActivate::total       126642                       # Bytes accessed per row activation
system.mem_ctrls2.rdPerTurnAround::samples        36155                       # Reads before turning the bus around for writes
system.mem_ctrls2.rdPerTurnAround::mean      8.986558                       # Reads before turning the bus around for writes
system.mem_ctrls2.rdPerTurnAround::stdev    21.268979                       # Reads before turning the bus around for writes
system.mem_ctrls2.rdPerTurnAround::0-127        36111     99.88%     99.88% # Reads before turning the bus around for writes
system.mem_ctrls2.rdPerTurnAround::128-255           42      0.12%     99.99% # Reads before turning the bus around for writes
system.mem_ctrls2.rdPerTurnAround::1152-1279            1      0.00%    100.00% # Reads before turning the bus around for writes
system.mem_ctrls2.rdPerTurnAround::2816-2943            1      0.00%    100.00% # Reads before turning the bus around for writes
system.mem_ctrls2.rdPerTurnAround::total        36155                       # Reads before turning the bus around for writes
system.mem_ctrls2.wrPerTurnAround::samples        36155                       # Writes before turning the bus around for reads
system.mem_ctrls2.wrPerTurnAround::mean      5.585230                       # Writes before turning the bus around for reads
system.mem_ctrls2.wrPerTurnAround::gmean     5.394024                       # Writes before turning the bus around for reads
system.mem_ctrls2.wrPerTurnAround::stdev     1.911091                       # Writes before turning the bus around for reads
system.mem_ctrls2.wrPerTurnAround::4-7          32840     90.83%     90.83% # Writes before turning the bus around for reads
system.mem_ctrls2.wrPerTurnAround::8-11          2161      5.98%     96.81% # Writes before turning the bus around for reads
system.mem_ctrls2.wrPerTurnAround::12-15          740      2.05%     98.85% # Writes before turning the bus around for reads
system.mem_ctrls2.wrPerTurnAround::16-19          414      1.15%    100.00% # Writes before turning the bus around for reads
system.mem_ctrls2.wrPerTurnAround::total        36155                       # Writes before turning the bus around for reads
system.mem_ctrls2.totQLat                 29085721558                       # Total ticks spent queuing
system.mem_ctrls2.totMemAccLat            35178421558                       # Total ticks spent from burst creation until serviced by the DRAM
system.mem_ctrls2.totBusLat                1624720000                       # Total ticks spent in databus transfers
system.mem_ctrls2.avgQLat                    89509.95                       # Average queueing delay per DRAM burst
system.mem_ctrls2.avgBusLat                   5000.00                       # Average bus latency per DRAM burst
system.mem_ctrls2.avgMemAccLat              108259.95                       # Average memory access latency per DRAM burst
system.mem_ctrls2.avgRdBW                      159.13                       # Average DRAM read bandwidth in MiByte/s
system.mem_ctrls2.avgWrBW                       98.89                       # Average achieved write bandwidth in MiByte/s
system.mem_ctrls2.avgRdBWSys                   159.13                       # Average system read bandwidth in MiByte/s
system.mem_ctrls2.avgWrBWSys                    98.89                       # Average system write bandwidth in MiByte/s
system.mem_ctrls2.peakBW                     12800.00                       # Theoretical peak bandwidth in MiByte/s
system.mem_ctrls2.busUtil                        2.02                       # Data bus utilization in percentage
system.mem_ctrls2.busUtilRead                    1.24                       # Data bus utilization in percentage for reads
system.mem_ctrls2.busUtilWrite                   0.77                       # Data bus utilization in percentage for writes
system.mem_ctrls2.avgRdQLen                      1.23                       # Average read queue length when enqueuing
system.mem_ctrls2.avgWrQLen                      2.95                       # Average write queue length when enqueuing
system.mem_ctrls2.readRowHits                  255025                       # Number of row buffer hits during reads
system.mem_ctrls2.writeRowHits                 145204                       # Number of row buffer hits during writes
system.mem_ctrls2.readRowHitRate                78.48                       # Row buffer hit rate for reads
system.mem_ctrls2.writeRowHitRate               71.91                       # Row buffer hit rate for writes
system.mem_ctrls2.avgGap                    248039.85                       # Average gap between requests
system.mem_ctrls2.pageHitRate                   75.96                       # Row buffer hit rate, read and write combined
system.mem_ctrls2.memoryStateTime::IDLE   28404802750                       # Time in different power states
system.mem_ctrls2.memoryStateTime::REF     4363840000                       # Time in different power states
system.mem_ctrls2.memoryStateTime::PRE_PDN            0                       # Time in different power states
system.mem_ctrls2.memoryStateTime::ACT    97916999750                       # Time in different power states
system.mem_ctrls2.memoryStateTime::ACT_PDN            0                       # Time in different power states
system.mem_ctrls2.actEnergy::0              486236520                       # Energy for activate commands per rank (pJ)
system.mem_ctrls2.actEnergy::1              471139200                       # Energy for activate commands per rank (pJ)
system.mem_ctrls2.preEnergy::0              265307625                       # Energy for precharge commands per rank (pJ)
system.mem_ctrls2.preEnergy::1              257070000                       # Energy for precharge commands per rank (pJ)
system.mem_ctrls2.readEnergy::0            1275089400                       # Energy for read commands per rank (pJ)
system.mem_ctrls2.readEnergy::1            1259068200                       # Energy for read commands per rank (pJ)
system.mem_ctrls2.writeEnergy::0            656644320                       # Energy for write commands per rank (pJ)
system.mem_ctrls2.writeEnergy::1            651790800                       # Energy for write commands per rank (pJ)
system.mem_ctrls2.refreshEnergy::0         8535671040                       # Energy for refresh commands per rank (pJ)
system.mem_ctrls2.refreshEnergy::1         8535671040                       # Energy for refresh commands per rank (pJ)
system.mem_ctrls2.actBackEnergy::0        48864142620                       # Energy for active background per rank (pJ)
system.mem_ctrls2.actBackEnergy::1        47936005920                       # Energy for active background per rank (pJ)
system.mem_ctrls2.preBackEnergy::0        35547525000                       # Energy for precharge background per rank (pJ)
system.mem_ctrls2.preBackEnergy::1        36361680000                       # Energy for precharge background per rank (pJ)
system.mem_ctrls2.totalEnergy::0          95630616525                       # Total energy per rank (pJ)
system.mem_ctrls2.totalEnergy::1          95472425160                       # Total energy per rank (pJ)
system.mem_ctrls2.averagePower::0          731.766084                       # Core power per rank (mW)
system.mem_ctrls2.averagePower::1          730.555603                       # Core power per rank (mW)
system.mem_ctrls3.bytes_read::ruby.dir_cntrl3     20776576                       # Number of bytes read from this memory
system.mem_ctrls3.bytes_read::total          20776576                       # Number of bytes read from this memory
system.mem_ctrls3.bytes_written::ruby.dir_cntrl3     12923008                       # Number of bytes written to this memory
system.mem_ctrls3.bytes_written::total       12923008                       # Number of bytes written to this memory
system.mem_ctrls3.num_reads::ruby.dir_cntrl3       324634                       # Number of read requests responded to by this memory
system.mem_ctrls3.num_reads::total             324634                       # Number of read requests responded to by this memory
system.mem_ctrls3.num_writes::ruby.dir_cntrl3       201922                       # Number of write requests responded to by this memory
system.mem_ctrls3.num_writes::total            201922                       # Number of write requests responded to by this memory
system.mem_ctrls3.bw_read::ruby.dir_cntrl3    158974444                       # Total read bandwidth from this memory (bytes/s)
system.mem_ctrls3.bw_read::total            158974444                       # Total read bandwidth from this memory (bytes/s)
system.mem_ctrls3.bw_write::ruby.dir_cntrl3     98881934                       # Write bandwidth from this memory (bytes/s)
system.mem_ctrls3.bw_write::total            98881934                       # Write bandwidth from this memory (bytes/s)
system.mem_ctrls3.bw_total::ruby.dir_cntrl3    257856378                       # Total bandwidth to/from this memory (bytes/s)
system.mem_ctrls3.bw_total::total           257856378                       # Total bandwidth to/from this memory (bytes/s)
system.mem_ctrls3.readReqs                     324634                       # Number of read requests accepted
system.mem_ctrls3.writeReqs                    201922                       # Number of write requests accepted
system.mem_ctrls3.readBursts                   324634                       # Number of DRAM read bursts, including those serviced by the write queue
system.mem_ctrls3.writeBursts                  201922                       # Number of DRAM write bursts, including those merged in the write queue
system.mem_ctrls3.bytesReadDRAM              20775744                       # Total number of bytes read from DRAM
system.mem_ctrls3.bytesReadWrQ                    832                       # Total number of bytes read from write queue
system.mem_ctrls3.bytesWritten               12922880                       # Total number of bytes written to DRAM
system.mem_ctrls3.bytesReadSys               20776576                       # Total read bytes from the system interface side
system.mem_ctrls3.bytesWrittenSys            12923008                       # Total written bytes from the system interface side
system.mem_ctrls3.servicedByWrQ                    13                       # Number of DRAM read bursts serviced by the write queue
system.mem_ctrls3.mergedWrBursts                    0                       # Number of DRAM write bursts merged with an existing one
system.mem_ctrls3.neitherReadNorWriteReqs            0                       # Number of requests that are neither read nor write
system.mem_ctrls3.perBankRdBursts::0            20050                       # Per bank write bursts
system.mem_ctrls3.perBankRdBursts::1            20651                       # Per bank write bursts
system.mem_ctrls3.perBankRdBursts::2            20160                       # Per bank write bursts
system.mem_ctrls3.perBankRdBursts::3            20703                       # Per bank write bursts
system.mem_ctrls3.perBankRdBursts::4            20316                       # Per bank write bursts
system.mem_ctrls3.perBankRdBursts::5            20520                       # Per bank write bursts
system.mem_ctrls3.perBankRdBursts::6            20424                       # Per bank write bursts
system.mem_ctrls3.perBankRdBursts::7            20474                       # Per bank write bursts
system.mem_ctrls3.perBankRdBursts::8            20145                       # Per bank write bursts
system.mem_ctrls3.perBankRdBursts::9            20381                       # Per bank write bursts
system.mem_ctrls3.perBankRdBursts::10           20197                       # Per bank write bursts
system.mem_ctrls3.perBankRdBursts::11           20539                       # Per bank write bursts
system.mem_ctrls3.perBankRdBursts::12           19975                       # Per bank write bursts
system.mem_ctrls3.perBankRdBursts::13           19847                       # Per bank write bursts
system.mem_ctrls3.perBankRdBursts::14           20099                       # Per bank write bursts
system.mem_ctrls3.perBankRdBursts::15           20140                       # Per bank write bursts
system.mem_ctrls3.perBankWrBursts::0            12669                       # Per bank write bursts
system.mem_ctrls3.perBankWrBursts::1            12603                       # Per bank write bursts
system.mem_ctrls3.perBankWrBursts::2            12550                       # Per bank write bursts
system.mem_ctrls3.perBankWrBursts::3            12777                       # Per bank write bursts
system.mem_ctrls3.perBankWrBursts::4            12597                       # Per bank write bursts
system.mem_ctrls3.perBankWrBursts::5            12705                       # Per bank write bursts
system.mem_ctrls3.perBankWrBursts::6            12634                       # Per bank write bursts
system.mem_ctrls3.perBankWrBursts::7            12787                       # Per bank write bursts
system.mem_ctrls3.perBankWrBursts::8            12539                       # Per bank write bursts
system.mem_ctrls3.perBankWrBursts::9            12780                       # Per bank write bursts
system.mem_ctrls3.perBankWrBursts::10           12550                       # Per bank write bursts
system.mem_ctrls3.perBankWrBursts::11           12520                       # Per bank write bursts
system.mem_ctrls3.perBankWrBursts::12           12465                       # Per bank write bursts
system.mem_ctrls3.perBankWrBursts::13           12461                       # Per bank write bursts
system.mem_ctrls3.perBankWrBursts::14           12714                       # Per bank write bursts
system.mem_ctrls3.perBankWrBursts::15           12569                       # Per bank write bursts
system.mem_ctrls3.numRdRetry                    59168                       # Number of times read queue was full causing retry
system.mem_ctrls3.numWrRetry                     2253                       # Number of times write queue was full causing retry
system.mem_ctrls3.totGap                 130690478000                       # Total gap between requests
system.mem_ctrls3.readPktSize::0                    0                       # Read request sizes (log2)
system.mem_ctrls3.readPktSize::1                    0                       # Read request sizes (log2)
system.mem_ctrls3.readPktSize::2                    0                       # Read request sizes (log2)
system.mem_ctrls3.readPktSize::3                    0                       # Read request sizes (log2)
system.mem_ctrls3.readPktSize::4                    0                       # Read request sizes (log2)
system.mem_ctrls3.readPktSize::5                    0                       # Read request sizes (log2)
system.mem_ctrls3.readPktSize::6               324634                       # Read request sizes (log2)
system.mem_ctrls3.writePktSize::0                   0                       # Write request sizes (log2)
system.mem_ctrls3.writePktSize::1                   0                       # Write request sizes (log2)
system.mem_ctrls3.writePktSize::2                   0                       # Write request sizes (log2)
system.mem_ctrls3.writePktSize::3                   0                       # Write request sizes (log2)
system.mem_ctrls3.writePktSize::4                   0                       # Write request sizes (log2)
system.mem_ctrls3.writePktSize::5                   0                       # Write request sizes (log2)
system.mem_ctrls3.writePktSize::6              201922                       # Write request sizes (log2)
system.mem_ctrls3.rdQLenPdf::0                 170989                       # What read queue length does an incoming req see
system.mem_ctrls3.rdQLenPdf::1                   1856                       # What read queue length does an incoming req see
system.mem_ctrls3.rdQLenPdf::2                   1540                       # What read queue length does an incoming req see
system.mem_ctrls3.rdQLenPdf::3                   1673                       # What read queue length does an incoming req see
system.mem_ctrls3.rdQLenPdf::4                   1772                       # What read queue length does an incoming req see
system.mem_ctrls3.rdQLenPdf::5                   1966                       # What read queue length does an incoming req see
system.mem_ctrls3.rdQLenPdf::6                   2134                       # What read queue length does an incoming req see
system.mem_ctrls3.rdQLenPdf::7                   2289                       # What read queue length does an incoming req see
system.mem_ctrls3.rdQLenPdf::8                   2421                       # What read queue length does an incoming req see
system.mem_ctrls3.rdQLenPdf::9                   2567                       # What read queue length does an incoming req see
system.mem_ctrls3.rdQLenPdf::10                  2684                       # What read queue length does an incoming req see
system.mem_ctrls3.rdQLenPdf::11                  2871                       # What read queue length does an incoming req see
system.mem_ctrls3.rdQLenPdf::12                  2933                       # What read queue length does an incoming req see
system.mem_ctrls3.rdQLenPdf::13                  3055                       # What read queue length does an incoming req see
system.mem_ctrls3.rdQLenPdf::14                  3174                       # What read queue length does an incoming req see
system.mem_ctrls3.rdQLenPdf::15                  3363                       # What read queue length does an incoming req see
system.mem_ctrls3.rdQLenPdf::16                  3247                       # What read queue length does an incoming req see
system.mem_ctrls3.rdQLenPdf::17                  3274                       # What read queue length does an incoming req see
system.mem_ctrls3.rdQLenPdf::18                  3445                       # What read queue length does an incoming req see
system.mem_ctrls3.rdQLenPdf::19                  3410                       # What read queue length does an incoming req see
system.mem_ctrls3.rdQLenPdf::20                  3462                       # What read queue length does an incoming req see
system.mem_ctrls3.rdQLenPdf::21                  3589                       # What read queue length does an incoming req see
system.mem_ctrls3.rdQLenPdf::22                  3526                       # What read queue length does an incoming req see
system.mem_ctrls3.rdQLenPdf::23                  3556                       # What read queue length does an incoming req see
system.mem_ctrls3.rdQLenPdf::24                  3619                       # What read queue length does an incoming req see
[...]
system.ruby.L2Cache_Controller.S_I.Ack_all::total           32                      
system.ruby.L2Cache_Controller.ISS.Mem_Data |       25588      5.07%      5.07% |       15487      3.07%      8.14% |       15516      3.08%     11.22% |       15470      3.07%     14.29% |       15440      3.06%     17.35% |       15419      3.06%     20.40% |       15432      3.06%     23.46% |       15427      3.06%     26.52% |       15463      3.07%     29.59% |       15477      3.07%     32.66% |       15502      3.07%     35.73% |       15427      3.06%     38.79% |       15442      3.06%     41.85% |       15445      3.06%     44.91% |       15453      3.06%     47.98% |       15418      3.06%     51.03% |       15426      3.06%     54.09% |       15421      3.06%     57.15% |       15444      3.06%     60.21% |       15424      3.06%     63.27% |       15445      3.06%     66.33% |       15460      3.07%     69.40% |       15459      3.06%     72.46% |       15436      3.06%     75.52% |       15456      3.06%     78.59% |       15451      3.06%     81.65% |       15428      3.06%     84.71% |       15415      3.06%     87.76% |       15456      3.06%     90.83% |       15412      3.06%     93.88% |       15410      3.06%     96.94% |       15439      3.06%    100.00%
system.ruby.L2Cache_Controller.ISS.Mem_Data::total       504388                      
system.ruby.L2Cache_Controller.IS.Mem_Data |         503      3.21%      3.21% |         454      2.89%      6.10% |         438      2.79%      8.89% |         449      2.86%     11.75% |         450      2.87%     14.62% |         430      2.74%     17.36% |         472      3.01%     20.37% |         491      3.13%     23.50% |         505      3.22%     26.72% |         445      2.84%     29.56% |         487      3.10%     32.66% |         498      3.17%     35.84% |         551      3.51%     39.35% |         523      3.33%     42.68% |         510      3.25%     45.93% |         492      3.14%     49.07% |         515      3.28%     52.35% |         532      3.39%     55.74% |         529      3.37%     59.12% |         483      3.08%     62.19% |         473      3.02%     65.21% |         523      3.33%     68.54% |         478      3.05%     71.59% |         451      2.87%     74.46% |         518      3.30%     77.77% |         578      3.68%     81.45% |         522      3.33%     84.78% |         479      3.05%     87.83% |         457      2.91%     90.74% |         511      3.26%     94.00% |         487      3.10%     97.11% |         454      2.89%    100.00%
system.ruby.L2Cache_Controller.IS.Mem_Data::total        15688                      
system.ruby.L2Cache_Controller.IM.Mem_Data |       24773      3.14%      3.14% |       24665      3.12%      6.26% |       24674      3.12%      9.38% |       24679      3.13%     12.51% |       24670      3.12%     15.63% |       24674      3.12%     18.76% |       24675      3.12%     21.88% |       24666      3.12%     25.01% |       24681      3.13%     28.13% |       24680      3.13%     31.26% |       24663      3.12%     34.38% |       24687      3.13%     37.51% |       24674      3.12%     40.63% |       24671      3.12%     43.75% |       24669      3.12%     46.88% |       24662      3.12%     50.00% |       24683      3.13%     53.13% |       24680      3.13%     56.25% |       24677      3.12%     59.38% |       24675      3.12%     62.50% |       24688      3.13%     65.63% |       24699      3.13%     68.75% |       24670      3.12%     71.88% |       24674      3.12%     75.00% |       24686      3.13%     78.13% |       24680      3.13%     81.25% |       24683      3.13%     84.38% |       24670      3.12%     87.50% |       24671      3.12%     90.63% |       24672      3.12%     93.75% |       24681      3.13%     96.88% |       24668      3.12%    100.00%
system.ruby.L2Cache_Controller.IM.Mem_Data::total       789720                      
system.ruby.L2Cache_Controller.SS_MB.Exclusive_Unblock |           2      4.17%      4.17% |           4      8.33%     12.50% |           5     10.42%     22.92% |           3      6.25%     29.17% |           0      0.00%     29.17% |           0      0.00%     29.17% |           0      0.00%     29.17% |           0      0.00%     29.17% |           1      2.08%     31.25% |           1      2.08%     33.33% |           0      0.00%     33.33% |           1      2.08%     35.42% |           6     12.50%     47.92% |           0      0.00%     47.92% |           2      4.17%     52.08% |           0      0.00%     52.08% |           0      0.00%     52.08% |           0      0.00%     52.08% |           7     14.58%     66.67% |           5     10.42%     77.08% |           1      2.08%     79.17% |           0      0.00%     79.17% |           0      0.00%     79.17% |           0      0.00%     79.17% |           1      2.08%     81.25% |           1      2.08%     83.33% |           1      2.08%     85.42% |           1      2.08%     87.50% |           5     10.42%     97.92% |           0      0.00%     97.92% |           1      2.08%    100.00% |           0      0.00%    100.00%
system.ruby.L2Cache_Controller.SS_MB.Exclusive_Unblock::total           48                      
system.ruby.L2Cache_Controller.MT_MB.L1_PUTX |           7    100.00%    100.00% |           0      0.00%    100.00% |           0      0.00%    100.00% |           0      0.00%    100.00% |           0      0.00%    100.00% |           0      0.00%    100.00% |           0      0.00%    100.00% |           0      0.00%    100.00% |           0      0.00%    100.00% |           0      0.00%    100.00% |           0      0.00%    100.00% |           0      0.00%    100.00% |           0      0.00%    100.00% |           0      0.00%    100.00% |           0      0.00%    100.00% |           0      0.00%    100.00% |           0      0.00%    100.00% |           0      0.00%    100.00% |           0      0.00%    100.00% |           0      0.00%    100.00% |           0      0.00%    100.00% |           0      0.00%    100.00% |           0      0.00%    100.00% |           0      0.00%    100.00% |           0      0.00%    100.00% |           0      0.00%    100.00% |           0      0.00%    100.00% |           0      0.00%    100.00% |           0      0.00%    100.00% |           0      0.00%    100.00% |           0      0.00%    100.00% |           0      0.00%    100.00%
system.ruby.L2Cache_Controller.MT_MB.L1_PUTX::total            7                      
system.ruby.L2Cache_Controller.MT_MB.Exclusive_Unblock |      171929      9.58%      9.58% |       54286      3.03%     12.61% |       49284      2.75%     15.36% |       52995      2.95%     18.31% |       53508      2.98%     21.29% |       49517      2.76%     24.05% |       45961      2.56%     26.61% |       45967      2.56%     29.17% |       51551      2.87%     32.05% |       49824      2.78%     34.82% |       54070      3.01%     37.84% |       51037      2.84%     40.68% |       48296      2.69%     43.37% |       46921      2.62%     45.99% |       47890      2.67%     48.66% |       46620      2.60%     51.26% |       50572      2.82%     54.08% |       48375      2.70%     56.77% |       49899      2.78%     59.55% |       54011      3.01%     62.56% |       54529      3.04%     65.60% |       63397      3.53%     69.14% |       58005      3.23%     72.37% |       53247      2.97%     75.34% |       53476      2.98%     78.32% |       51448      2.87%     81.18% |       52513      2.93%     84.11% |       52315      2.92%     87.03% |       55516      3.09%     90.12% |       55167      3.07%     93.20% |       63471      3.54%     96.73% |       58599      3.27%    100.00%
system.ruby.L2Cache_Controller.MT_MB.Exclusive_Unblock::total      1794196                      
system.ruby.L2Cache_Controller.MT_IIB.WB_Data |           0      0.00%      0.00% |           0      0.00%      0.00% |           1      7.14%      7.14% |           1      7.14%     14.29% |           1      7.14%     21.43% |           0      0.00%     21.43% |           1      7.14%     28.57% |           0      0.00%     28.57% |           1      7.14%     35.71% |           1      7.14%     42.86% |           1      7.14%     50.00% |           1      7.14%     57.14% |           1      7.14%     64.29% |           0      0.00%     64.29% |           1      7.14%     71.43% |           1      7.14%     78.57% |           1      7.14%     85.71% |           1      7.14%     92.86% |           1      7.14%    100.00% |           0      0.00%    100.00% |           0      0.00%    100.00% |           0      0.00%    100.00% |           0      0.00%    100.00% |           0      0.00%    100.00% |           0      0.00%    100.00% |           0      0.00%    100.00% |           0      0.00%    100.00% |           0      0.00%    100.00% |           0      0.00%    100.00% |           0      0.00%    100.00% |           0      0.00%    100.00% |           0      0.00%    100.00%
system.ruby.L2Cache_Controller.MT_IIB.WB_Data::total           14                      
system.ruby.L2Cache_Controller.MT_IIB.WB_Data_clean |          11    100.00%    100.00% |           0      0.00%    100.00% |           0      0.00%    100.00% |           0      0.00%    100.00% |           0      0.00%    100.00% |           0      0.00%    100.00% |           0      0.00%    100.00% |           0      0.00%    100.00% |           0      0.00%    100.00% |           0      0.00%    100.00% |           0      0.00%    100.00% |           0      0.00%    100.00% |           0      0.00%    100.00% |           0      0.00%    100.00% |           0      0.00%    100.00% |           0      0.00%    100.00% |           0      0.00%    100.00% |           0      0.00%    100.00% |           0      0.00%    100.00% |           0      0.00%    100.00% |           0      0.00%    100.00% |           0      0.00%    100.00% |           0      0.00%    100.00% |           0      0.00%    100.00% |           0      0.00%    100.00% |           0      0.00%    100.00% |           0      0.00%    100.00% |           0      0.00%    100.00% |           0      0.00%    100.00% |           0      0.00%    100.00% |           0      0.00%    100.00% |           0      0.00%    100.00%
system.ruby.L2Cache_Controller.MT_IIB.WB_Data_clean::total           11                      
system.ruby.L2Cache_Controller.MT_IIB.Unblock |           0      0.00%      0.00% |           0      0.00%      0.00% |           0      0.00%      0.00% |           0      0.00%      0.00% |           0      0.00%      0.00% |           0      0.00%      0.00% |           0      0.00%      0.00% |           1     50.00%     50.00% |           0      0.00%     50.00% |           0      0.00%     50.00% |           0      0.00%     50.00% |           0      0.00%     50.00% |           0      0.00%     50.00% |           1     50.00%    100.00% |           0      0.00%    100.00% |           0      0.00%    100.00% |           0      0.00%    100.00% |           0      0.00%    100.00% |           0      0.00%    100.00% |           0      0.00%    100.00% |           0      0.00%    100.00% |           0      0.00%    100.00% |           0      0.00%    100.00% |           0      0.00%    100.00% |           0      0.00%    100.00% |           0      0.00%    100.00% |           0      0.00%    100.00% |           0      0.00%    100.00% |           0      0.00%    100.00% |           0      0.00%    100.00% |           0      0.00%    100.00% |           0      0.00%    100.00%
system.ruby.L2Cache_Controller.MT_IIB.Unblock::total            2                      
system.ruby.L2Cache_Controller.MT_IB.WB_Data |           0      0.00%      0.00% |           0      0.00%      0.00% |           0      0.00%      0.00% |           0      0.00%      0.00% |           0      0.00%      0.00% |           0      0.00%      0.00% |           0      0.00%      0.00% |           1     50.00%     50.00% |           0      0.00%     50.00% |           0      0.00%     50.00% |           0      0.00%     50.00% |           0      0.00%     50.00% |           0      0.00%     50.00% |           1     50.00%    100.00% |           0      0.00%    100.00% |           0      0.00%    100.00% |           0      0.00%    100.00% |           0      0.00%    100.00% |           0      0.00%    100.00% |           0      0.00%    100.00% |           0      0.00%    100.00% |           0      0.00%    100.00% |           0      0.00%    100.00% |           0      0.00%    100.00% |           0      0.00%    100.00% |           0      0.00%    100.00% |           0      0.00%    100.00% |           0      0.00%    100.00% |           0      0.00%    100.00% |           0      0.00%    100.00% |           0      0.00%    100.00% |           0      0.00%    100.00%
system.ruby.L2Cache_Controller.MT_IB.WB_Data::total            2                      
system.ruby.L2Cache_Controller.MT_SB.Unblock |          11     44.00%     44.00% |           0      0.00%     44.00% |           1      4.00%     48.00% |           1      4.00%     52.00% |           1      4.00%     56.00% |           0      0.00%     56.00% |           1      4.00%     60.00% |           0      0.00%     60.00% |           1      4.00%     64.00% |           1      4.00%     68.00% |           1      4.00%     72.00% |           1      4.00%     76.00% |           1      4.00%     80.00% |           0      0.00%     80.00% |           1      4.00%     84.00% |           1      4.00%     88.00% |           1      4.00%     92.00% |           1      4.00%     96.00% |           1      4.00%    100.00% |           0      0.00%    100.00% |           0      0.00%    100.00% |           0      0.00%    100.00% |           0      0.00%    100.00% |           0      0.00%    100.00% |           0      0.00%    100.00% |           0      0.00%    100.00% |           0      0.00%    100.00% |           0      0.00%    100.00% |           0      0.00%    100.00% |           0      0.00%    100.00% |           0      0.00%    100.00% |           0      0.00%    100.00%
system.ruby.L2Cache_Controller.MT_SB.Unblock::total           25                      
system.ruby.SimicsNetworkPortInterface_Controller.MessageSend |       34821     11.55%     11.55% |      150696     50.00%     61.55% |       14301      4.74%     66.30% |       15922      5.28%     71.58% |       14344      4.76%     76.34% |       15657      5.19%     81.54% |       14468      4.80%     86.34% |       15797      5.24%     91.58% |       12376      4.11%     95.68% |       13010      4.32%    100.00% |           0      0.00%    100.00% |           0      0.00%    100.00% |           0      0.00%    100.00% |           0      0.00%    100.00% |           0      0.00%    100.00% |           0      0.00%    100.00% |           0      0.00%    100.00% |           0      0.00%    100.00% |           0      0.00%    100.00% |           0      0.00%    100.00% |           0      0.00%    100.00% |           0      0.00%    100.00% |           0      0.00%    100.00% |           0      0.00%    100.00% |           0      0.00%    100.00% |           0      0.00%    100.00% |           0      0.00%    100.00% |           0      0.00%    100.00% |           0      0.00%    100.00% |           0      0.00%    100.00% |           0      0.00%    100.00% |           0      0.00%    100.00%
system.ruby.SimicsNetworkPortInterface_Controller.MessageSend::total       301392                      
system.ruby.SimicsNetworkPortInterface_Controller.MessageRecv |       34821     11.55%     11.55% |      150696     50.00%     61.55% |       14301      4.74%     66.30% |       15922      5.28%     71.58% |       14344      4.76%     76.34% |       15657      5.19%     81.54% |       14468      4.80%     86.34% |       15797      5.24%     91.58% |       12376      4.11%     95.68% |       13010      4.32%    100.00% |           0      0.00%    100.00% |           0      0.00%    100.00% |           0      0.00%    100.00% |           0      0.00%    100.00% |           0      0.00%    100.00% |           0      0.00%    100.00% |           0      0.00%    100.00% |           0      0.00%    100.00% |           0      0.00%    100.00% |           0      0.00%    100.00% |           0      0.00%    100.00% |           0      0.00%    100.00% |           0      0.00%    100.00% |           0      0.00%    100.00% |           0      0.00%    100.00% |           0      0.00%    100.00% |           0      0.00%    100.00% |           0      0.00%    100.00% |           0      0.00%    100.00% |           0      0.00%    100.00% |           0      0.00%    100.00% |           0      0.00%    100.00%
system.ruby.SimicsNetworkPortInterface_Controller.MessageRecv::total       301392                      
system.ruby.SimicsNetworkPortInterface_Controller.A.MessageSend |       34821     11.55%     11.55% |      150696     50.00%     61.55% |       14301      4.74%     66.30% |       15922      5.28%     71.58% |       14344      4.76%     76.34% |       15657      5.19%     81.54% |       14468      4.80%     86.34% |       15797      5.24%     91.58% |       12376      4.11%     95.68% |       13010      4.32%    100.00% |           0      0.00%    100.00% |           0      0.00%    100.00% |           0      0.00%    100.00% |           0      0.00%    100.00% |           0      0.00%    100.00% |           0      0.00%    100.00% |           0      0.00%    100.00% |           0      0.00%    100.00% |           0      0.00%    100.00% |           0      0.00%    100.00% |           0      0.00%    100.00% |           0      0.00%    100.00% |           0      0.00%    100.00% |           0      0.00%    100.00% |           0      0.00%    100.00% |           0      0.00%    100.00% |           0      0.00%    100.00% |           0      0.00%    100.00% |           0      0.00%    100.00% |           0      0.00%    100.00% |           0      0.00%    100.00% |           0      0.00%    100.00%
system.ruby.SimicsNetworkPortInterface_Controller.A.MessageSend::total       301392                      
system.ruby.SimicsNetworkPortInterface_Controller.A.MessageRecv |       34821     11.55%     11.55% |      150696     50.00%     61.55% |       14301      4.74%     66.30% |       15922      5.28%     71.58% |       14344      4.76%     76.34% |       15657      5.19%     81.54% |       14468      4.80%     86.34% |       15797      5.24%     91.58% |       12376      4.11%     95.68% |       13010      4.32%    100.00% |           0      0.00%    100.00% |           0      0.00%    100.00% |           0      0.00%    100.00% |           0      0.00%    100.00% |           0      0.00%    100.00% |           0      0.00%    100.00% |           0      0.00%    100.00% |           0      0.00%    100.00% |           0      0.00%    100.00% |           0      0.00%    100.00% |           0      0.00%    100.00% |           0      0.00%    100.00% |           0      0.00%    100.00% |           0      0.00%    100.00% |           0      0.00%    100.00% |           0      0.00%    100.00% |           0      0.00%    100.00% |           0      0.00%    100.00% |           0      0.00%    100.00% |           0      0.00%    100.00% |           0      0.00%    100.00% |           0      0.00%    100.00%
system.ruby.SimicsNetworkPortInterface_Controller.A.MessageRecv::total       301392                      
system.switch_cpus.kern.inst.arm                    0                       # number of arm instructions executed
system.switch_cpus.kern.inst.quiesce                0                       # number of quiesce instructions executed

---------- End Simulation Statistics   ----------
