
---------- Begin Simulation Statistics ----------
sim_seconds                                  0.038830                       # Number of seconds simulated
sim_ticks                                 38829799500                       # Number of ticks simulated
final_tick                               5214997878000                       # Number of ticks from beginning of simulation (restored from checkpoints and never reset)
sim_freq                                 1000000000000                       # Frequency of simulated ticks
host_inst_rate                                  49679                       # Simulator instruction rate (inst/s)
host_op_rate                                    87472                       # Simulator op (including micro ops) rate (op/s)
host_tick_rate                              106129872                       # Simulator tick rate (ticks/s)
host_mem_usage                                3225060                       # Number of bytes of host memory used
host_seconds                                   365.87                       # Real time elapsed on the host
sim_insts                                    18176136                       # Number of instructions simulated
sim_ops                                      32003464                       # Number of ops (including micro ops) simulated
system.voltage_domain.voltage                       1                       # Voltage in Volts
system.clk_domain.clock                           500                       # Clock period in ticks
system.mem_ctrls0.bytes_read::ruby.dir_cntrl0      4688768                       # Number of bytes read from this memory
system.mem_ctrls0.bytes_read::total           4688768                       # Number of bytes read from this memory
system.mem_ctrls0.bytes_written::ruby.dir_cntrl0      2862144                       # Number of bytes written to this memory
system.mem_ctrls0.bytes_written::total        2862144                       # Number of bytes written to this memory
system.mem_ctrls0.num_reads::ruby.dir_cntrl0        73262                       # Number of read requests responded to by this memory
system.mem_ctrls0.num_reads::total              73262                       # Number of read requests responded to by this memory
system.mem_ctrls0.num_writes::ruby.dir_cntrl0        44721                       # Number of write requests responded to by this memory
system.mem_ctrls0.num_writes::total             44721                       # Number of write requests responded to by this memory
system.mem_ctrls0.bw_read::ruby.dir_cntrl0    120751795                       # Total read bandwidth from this memory (bytes/s)
system.mem_ctrls0.bw_read::total            120751795                       # Total read bandwidth from this memory (bytes/s)
system.mem_ctrls0.bw_write::ruby.dir_cntrl0     73709987                       # Write bandwidth from this memory (bytes/s)
system.mem_ctrls0.bw_write::total            73709987                       # Write bandwidth from this memory (bytes/s)
system.mem_ctrls0.bw_total::ruby.dir_cntrl0    194461782                       # Total bandwidth to/from this memory (bytes/s)
system.mem_ctrls0.bw_total::total           194461782                       # Total bandwidth to/from this memory (bytes/s)
system.mem_ctrls0.readReqs                      73262                       # Number of read requests accepted
system.mem_ctrls0.writeReqs                     44721                       # Number of write requests accepted
system.mem_ctrls0.readBursts                    73262                       # Number of DRAM read bursts, including those serviced by the write queue
system.mem_ctrls0.writeBursts                   44721                       # Number of DRAM write bursts, including those merged in the write queue
system.mem_ctrls0.bytesReadDRAM               4687936                       # Total number of bytes read from DRAM
system.mem_ctrls0.bytesReadWrQ                    832                       # Total number of bytes read from write queue
system.mem_ctrls0.bytesWritten                2861888                       # Total number of bytes written to DRAM
system.mem_ctrls0.bytesReadSys                4688768                       # Total read bytes from the system interface side
system.mem_ctrls0.bytesWrittenSys             2862144                       # Total written bytes from the system interface side
system.mem_ctrls0.servicedByWrQ                    13                       # Number of DRAM read bursts serviced by the write queue
system.mem_ctrls0.mergedWrBursts                    0                       # Number of DRAM write bursts merged with an existing one
system.mem_ctrls0.neitherReadNorWriteReqs            0                       # Number of requests that are neither read nor write
system.mem_ctrls0.perBankRdBursts::0             4426                       # Per bank write bursts
system.mem_ctrls0.perBankRdBursts::1             4891                       # Per bank write bursts
system.mem_ctrls0.perBankRdBursts::2             4541                       # Per bank write bursts
system.mem_ctrls0.perBankRdBursts::3             4886                       # Per bank write bursts
system.mem_ctrls0.perBankRdBursts::4             4634                       # Per bank write bursts
system.mem_ctrls0.perBankRdBursts::5             4726                       # Per bank write bursts
system.mem_ctrls0.perBankRdBursts::6             4552                       # Per bank write bursts
system.mem_ctrls0.perBankRdBursts::7             4523                       # Per bank write bursts
system.mem_ctrls0.perBankRdBursts::8             4505                       # Per bank write bursts
system.mem_ctrls0.perBankRdBursts::9             4793                       # Per bank write bursts
system.mem_ctrls0.perBankRdBursts::10            4517                       # Per bank write bursts
system.mem_ctrls0.perBankRdBursts::11            4732                       # Per bank write bursts
system.mem_ctrls0.perBankRdBursts::12            4351                       # Per bank write bursts
system.mem_ctrls0.perBankRdBursts::13            4197                       # Per bank write bursts
system.mem_ctrls0.perBankRdBursts::14            4469                       # Per bank write bursts
system.mem_ctrls0.perBankRdBursts::15            4506                       # Per bank write bursts
system.mem_ctrls0.perBankWrBursts::0             2818                       # Per bank write bursts
system.mem_ctrls0.perBankWrBursts::1             2810                       # Per bank write bursts
system.mem_ctrls0.perBankWrBursts::2             2793                       # Per bank write bursts
system.mem_ctrls0.perBankWrBursts::3             2882                       # Per bank write bursts
system.mem_ctrls0.perBankWrBursts::4             2801                       # Per bank write bursts
system.mem_ctrls0.perBankWrBursts::5             2938                       # Per bank write bursts
system.mem_ctrls0.perBankWrBursts::6             2769                       # Per bank write bursts
system.mem_ctrls0.perBankWrBursts::7             2845                       # Per bank write bursts
system.mem_ctrls0.perBankWrBursts::8             2739                       # Per bank write bursts
system.mem_ctrls0.perBankWrBursts::9             2919                       # Per bank write bursts
system.mem_ctrls0.perBankWrBursts::10            2766                       # Per bank write bursts
system.mem_ctrls0.perBankWrBursts::11            2698                       # Per bank write bursts
system.mem_ctrls0.perBankWrBursts::12            2633                       # Per bank write bursts
system.mem_ctrls0.perBankWrBursts::13            2669                       # Per bank write bursts
system.mem_ctrls0.perBankWrBursts::14            2876                       # Per bank write bursts
system.mem_ctrls0.perBankWrBursts::15            2761                       # Per bank write bursts
system.mem_ctrls0.numRdRetry                      359                       # Number of times read queue was full causing retry
system.mem_ctrls0.numWrRetry                     2222                       # Number of times write queue was full causing retry
system.mem_ctrls0.totGap                  38829287000                       # Total gap between requests
system.mem_ctrls0.readPktSize::0                    0                       # Read request sizes (log2)
system.mem_ctrls0.readPktSize::1                    0                       # Read request sizes (log2)
system.mem_ctrls0.readPktSize::2                    0                       # Read request sizes (log2)
system.mem_ctrls0.readPktSize::3                    0                       # Read request sizes (log2)
system.mem_ctrls0.readPktSize::4                    0                       # Read request sizes (log2)
system.mem_ctrls0.readPktSize::5                    0                       # Read request sizes (log2)
system.mem_ctrls0.readPktSize::6                73262                       # Read request sizes (log2)
system.mem_ctrls0.writePktSize::0                   0                       # Write request sizes (log2)
system.mem_ctrls0.writePktSize::1                   0                       # Write request sizes (log2)
system.mem_ctrls0.writePktSize::2                   0                       # Write request sizes (log2)
system.mem_ctrls0.writePktSize::3                   0                       # Write request sizes (log2)
system.mem_ctrls0.writePktSize::4                   0                       # Write request sizes (log2)
system.mem_ctrls0.writePktSize::5                   0                       # Write request sizes (log2)
system.mem_ctrls0.writePktSize::6               44721                       # Write request sizes (log2)
system.mem_ctrls0.rdQLenPdf::0                  45717                       # What read queue length does an incoming req see
system.mem_ctrls0.rdQLenPdf::1                   4396                       # What read queue length does an incoming req see
system.mem_ctrls0.rdQLenPdf::2                   3610                       # What read queue length does an incoming req see
system.mem_ctrls0.rdQLenPdf::3                   2939                       # What read queue length does an incoming req see
system.mem_ctrls0.rdQLenPdf::4                   2375                       # What read queue length does an incoming req see
system.mem_ctrls0.rdQLenPdf::5                   2006                       # What read queue length does an incoming req see
system.mem_ctrls0.rdQLenPdf::6                   1571                       # What read queue length does an incoming req see
system.mem_ctrls0.rdQLenPdf::7                   1352                       # What read queue length does an incoming req see
system.mem_ctrls0.rdQLenPdf::8                   1178                       # What read queue length does an incoming req see
system.mem_ctrls0.rdQLenPdf::9                    959                       # What read queue length does an incoming req see
system.mem_ctrls0.rdQLenPdf::10                   819                       # What read queue length does an incoming req see
system.mem_ctrls0.rdQLenPdf::11                   731                       # What read queue length does an incoming req see
system.mem_ctrls0.rdQLenPdf::12                   595                       # What read queue length does an incoming req see
system.mem_ctrls0.rdQLenPdf::13                   555                       # What read queue length does an incoming req see
system.mem_ctrls0.rdQLenPdf::14                   488                       # What read queue length does an incoming req see
system.mem_ctrls0.rdQLenPdf::15                   407                       # What read queue length does an incoming req see
system.mem_ctrls0.rdQLenPdf::16                   379                       # What read queue length does an incoming req see
system.mem_ctrls0.rdQLenPdf::17                   366                       # What read queue length does an incoming req see
system.mem_ctrls0.rdQLenPdf::18                   290                       # What read queue length does an incoming req see
system.mem_ctrls0.rdQLenPdf::19                   260                       # What read queue length does an incoming req see
system.mem_ctrls0.rdQLenPdf::20                   243                       # What read queue length does an incoming req see
system.mem_ctrls0.rdQLenPdf::21                   225                       # What read queue length does an incoming req see
system.mem_ctrls0.rdQLenPdf::22                   198                       # What read queue length does an incoming req see
system.mem_ctrls0.rdQLenPdf::23                   180                       # What read queue length does an incoming req see
system.mem_ctrls0.rdQLenPdf::24                   163                       # What read queue length does an incoming req see
system.mem_ctrls0.rdQLenPdf::25                   149                       # What read queue length does an incoming req see
system.mem_ctrls0.rdQLenPdf::26                   141                       # What read queue length does an incoming req see
system.mem_ctrls0.rdQLenPdf::27                   132                       # What read queue length does an incoming req see
system.mem_ctrls0.rdQLenPdf::28                   127                       # What read queue length does an incoming req see
system.mem_ctrls0.rdQLenPdf::29                   122                       # What read queue length does an incoming req see
system.mem_ctrls0.rdQLenPdf::30                   111                       # What read queue length does an incoming req see
system.mem_ctrls0.rdQLenPdf::31                   465                       # What read queue length does an incoming req see
system.mem_ctrls0.wrQLenPdf::0                   7722                       # What write queue length does an incoming req see
system.mem_ctrls0.wrQLenPdf::1                   7995                       # What write queue length does an incoming req see
system.mem_ctrls0.wrQLenPdf::2                   8159                       # What write queue length does an incoming req see
system.mem_ctrls0.wrQLenPdf::3                   8232                       # What write queue length does an incoming req see
system.mem_ctrls0.wrQLenPdf::4                   8335                       # What write queue length does an incoming req see
system.mem_ctrls0.wrQLenPdf::5                    781                       # What write queue length does an incoming req see
system.mem_ctrls0.wrQLenPdf::6                    689                       # What write queue length does an incoming req see
system.mem_ctrls0.wrQLenPdf::7                   2808                       # What write queue length does an incoming req see
system.mem_ctrls0.bytesPerActivate::samples        32372                       # Bytes accessed per row activation
system.mem_ctrls0.bytesPerActivate::mean   233.157544                       # Bytes accessed per row activation
system.mem_ctrls0.bytesPerActivate::gmean   157.359594                       # Bytes accessed per row activation
system.mem_ctrls0.bytesPerActivate::stdev   234.451996                       # Bytes accessed per row activation
system.mem_ctrls0.bytesPerActivate::0-127        12583     38.87%     38.87% # Bytes accessed per row activation
system.mem_ctrls0.bytesPerActivate::128-255         7272     22.46%     61.33% # Bytes accessed per row activation
system.mem_ctrls0.bytesPerActivate::256-383         8079     24.96%     86.29% # Bytes accessed per row activation
system.mem_ctrls0.bytesPerActivate::384-511         1018      3.14%     89.44% # Bytes accessed per row activation
system.mem_ctrls0.bytesPerActivate::512-639          751      2.32%     91.76% # Bytes accessed per row activation
system.mem_ctrls0.bytesPerActivate::640-767          596      1.84%     93.60% # Bytes accessed per row activation
system.mem_ctrls0.bytesPerActivate::768-895          432      1.33%     94.93% # Bytes accessed per row activation
system.mem_ctrls0.bytesPerActivate::896-1023          426      1.32%     96.25% # Bytes accessed per row activation
system.mem_ctrls0.bytesPerActivate::1024-1151         1215      3.75%    100.00% # Bytes accessed per row activation
system.mem_ctrls0.bytesPerActivate::total        32372                       # Bytes accessed per row activation
system.mem_ctrls0.rdPerTurnAround::samples         7958                       # Reads before turning the bus around for writes
system.mem_ctrls0.rdPerTurnAround::mean      9.200427                       # Reads before turning the bus around for writes
system.mem_ctrls0.rdPerTurnAround::stdev    46.019120                       # Reads before turning the bus around for writes
system.mem_ctrls0.rdPerTurnAround::0-127         7951     99.91%     99.91% # Reads before turning the bus around for writes
system.mem_ctrls0.rdPerTurnAround::128-255            6      0.08%     99.99% # Reads before turning the bus around for writes
system.mem_ctrls0.rdPerTurnAround::3968-4095            1      0.01%    100.00% # Reads before turning the bus around for writes
system.mem_ctrls0.rdPerTurnAround::total         7958                       # Reads before turning the bus around for writes
system.mem_ctrls0.wrPerTurnAround::samples         7958                       # Writes before turning the bus around for reads
system.mem_ctrls0.wrPerTurnAround::mean      5.619125                       # Writes before turning the bus around for reads
system.mem_ctrls0.wrPerTurnAround::gmean     5.387419                       # Writes before turning the bus around for reads
system.mem_ctrls0.wrPerTurnAround::stdev     2.231217                       # Writes before turning the bus around for reads
system.mem_ctrls0.wrPerTurnAround::4-7           7447     93.58%     93.58% # Writes before turning the bus around for reads
system.mem_ctrls0.wrPerTurnAround::8-11           144      1.81%     95.39% # Writes before turning the bus around for reads
system.mem_ctrls0.wrPerTurnAround::12-15          104      1.31%     96.70% # Writes before turning the bus around for reads
system.mem_ctrls0.wrPerTurnAround::16-19          263      3.30%    100.00% # Writes before turning the bus around for reads
system.mem_ctrls0.wrPerTurnAround::total         7958                       # Writes before turning the bus around for reads
system.mem_ctrls0.totQLat                  3367653188                       # Total ticks spent queuing
system.mem_ctrls0.totMemAccLat             4741071938                       # Total ticks spent from burst creation until serviced by the DRAM
system.mem_ctrls0.totBusLat                 366245000                       # Total ticks spent in databus transfers
system.mem_ctrls0.avgQLat                    45975.42                       # Average queueing delay per DRAM burst
system.mem_ctrls0.avgBusLat                   5000.00                       # Average bus latency per DRAM burst
system.mem_ctrls0.avgMemAccLat               64725.42                       # Average memory access latency per DRAM burst
system.mem_ctrls0.avgRdBW                      120.73                       # Average DRAM read bandwidth in MiByte/s
system.mem_ctrls0.avgWrBW                       73.70                       # Average achieved write bandwidth in MiByte/s
system.mem_ctrls0.avgRdBWSys                   120.75                       # Average system read bandwidth in MiByte/s
system.mem_ctrls0.avgWrBWSys                    73.71                       # Average system write bandwidth in MiByte/s
system.mem_ctrls0.peakBW                     12800.00                       # Theoretical peak bandwidth in MiByte/s
system.mem_ctrls0.busUtil                        1.52                       # Data bus utilization in percentage
system.mem_ctrls0.busUtilRead                    0.94                       # Data bus utilization in percentage for reads
system.mem_ctrls0.busUtilWrite                   0.58                       # Data bus utilization in percentage for writes
system.mem_ctrls0.avgRdQLen                      1.11                       # Average read queue length when enqueuing
system.mem_ctrls0.avgWrQLen                      2.87                       # Average write queue length when enqueuing
system.mem_ctrls0.readRowHits                   56181                       # Number of row buffer hits during reads
system.mem_ctrls0.writeRowHits                  29403                       # Number of row buffer hits during writes
system.mem_ctrls0.readRowHitRate                76.70                       # Row buffer hit rate for reads
system.mem_ctrls0.writeRowHitRate               65.75                       # Row buffer hit rate for writes
system.mem_ctrls0.avgGap                    329109.17                       # Average gap between requests
system.mem_ctrls0.pageHitRate                   72.55                       # Row buffer hit rate, read and write combined
system.mem_ctrls0.memoryStateTime::IDLE   10429338000                       # Time in different power states
system.mem_ctrls0.memoryStateTime::REF     1296360000                       # Time in different power states
system.mem_ctrls0.memoryStateTime::PRE_PDN            0                       # Time in different power states
system.mem_ctrls0.memoryStateTime::ACT    27096822250                       # Time in different power states
system.mem_ctrls0.memoryStateTime::ACT_PDN            0                       # Time in different power states
system.mem_ctrls0.actEnergy::0              126410760                       # Energy for activate commands per rank (pJ)
system.mem_ctrls0.actEnergy::1              118162800                       # Energy for activate commands per rank (pJ)
system.mem_ctrls0.preEnergy::0               68974125                       # Energy for precharge commands per rank (pJ)
system.mem_ctrls0.preEnergy::1               64473750                       # Energy for precharge commands per rank (pJ)
system.mem_ctrls0.readEnergy::0             289231800                       # Energy for read commands per rank (pJ)
system.mem_ctrls0.readEnergy::1             281229000                       # Energy for read commands per rank (pJ)
system.mem_ctrls0.writeEnergy::0            146713680                       # Energy for write commands per rank (pJ)
system.mem_ctrls0.writeEnergy::1            142948800                       # Energy for write commands per rank (pJ)
system.mem_ctrls0.refreshEnergy::0         2535680160                       # Energy for refresh commands per rank (pJ)
system.mem_ctrls0.refreshEnergy::1         2535680160                       # Energy for refresh commands per rank (pJ)
system.mem_ctrls0.actBackEnergy::0        14169902175                       # Energy for active background per rank (pJ)
system.mem_ctrls0.actBackEnergy::1        13803100335                       # Energy for active background per rank (pJ)
system.mem_ctrls0.preBackEnergy::0        10863765000                       # Energy for precharge background per rank (pJ)
system.mem_ctrls0.preBackEnergy::1        11185521000                       # Energy for precharge background per rank (pJ)
system.mem_ctrls0.totalEnergy::0          28200677700                       # Total energy per rank (pJ)
system.mem_ctrls0.totalEnergy::1          28131115845                       # Total energy per rank (pJ)
system.mem_ctrls0.averagePower::0          726.400236                       # Core power per rank (mW)
system.mem_ctrls0.averagePower::1          724.608444                       # Core power per rank (mW)
system.mem_ctrls1.bytes_read::ruby.dir_cntrl1      4564288                       # Number of bytes read from this memory
system.mem_ctrls1.bytes_read::total           4564288                       # Number of bytes read from this memory
system.mem_ctrls1.bytes_written::ruby.dir_cntrl1      2746624                       # Number of bytes written to this memory
system.mem_ctrls1.bytes_written::total        2746624                       # Number of bytes written to this memory
system.mem_ctrls1.num_reads::ruby.dir_cntrl1        71317                       # Number of read requests responded to by this memory
system.mem_ctrls1.num_reads::total              71317                       # Number of read requests responded to by this memory
system.mem_ctrls1.num_writes::ruby.dir_cntrl1        42916                       # Number of write requests responded to by this memory
system.mem_ctrls1.num_writes::total             42916                       # Number of write requests responded to by this memory
system.mem_ctrls1.bw_read::ruby.dir_cntrl1    117546010                       # Total read bandwidth from this memory (bytes/s)
system.mem_ctrls1.bw_read::total            117546010                       # Total read bandwidth from this memory (bytes/s)
system.mem_ctrls1.bw_write::ruby.dir_cntrl1     70734952                       # Write bandwidth from this memory (bytes/s)
system.mem_ctrls1.bw_write::total            70734952                       # Write bandwidth from this memory (bytes/s)
system.mem_ctrls1.bw_total::ruby.dir_cntrl1    188280962                       # Total bandwidth to/from this memory (bytes/s)
system.mem_ctrls1.bw_total::total           188280962                       # Total bandwidth to/from this memory (bytes/s)
system.mem_ctrls1.readReqs                      71317                       # Number of read requests accepted
system.mem_ctrls1.writeReqs                     42916                       # Number of write requests accepted
system.mem_ctrls1.readBursts                    71317                       # Number of DRAM read bursts, including those serviced by the write queue
system.mem_ctrls1.writeBursts                   42916                       # Number of DRAM write bursts, including those merged in the write queue
system.mem_ctrls1.bytesReadDRAM               4563328                       # Total number of bytes read from DRAM
system.mem_ctrls1.bytesReadWrQ                    960                       # Total number of bytes read from write queue
system.mem_ctrls1.bytesWritten                2746496                       # Total number of bytes written to DRAM
system.mem_ctrls1.bytesReadSys                4564288                       # Total read bytes from the system interface side
system.mem_ctrls1.bytesWrittenSys             2746624                       # Total written bytes from the system interface side
system.mem_ctrls1.servicedByWrQ                    15                       # Number of DRAM read bursts serviced by the write queue
system.mem_ctrls1.mergedWrBursts                    0                       # Number of DRAM write bursts merged with an existing one
system.mem_ctrls1.neitherReadNorWriteReqs            0                       # Number of requests that are neither read nor write
system.mem_ctrls1.perBankRdBursts::0             4309                       # Per bank write bursts
system.mem_ctrls1.perBankRdBursts::1             4752                       # Per bank write bursts
system.mem_ctrls1.perBankRdBursts::2             4420                       # Per bank write bursts
system.mem_ctrls1.perBankRdBursts::3             4767                       # Per bank write bursts
system.mem_ctrls1.perBankRdBursts::4             4524                       # Per bank write bursts
system.mem_ctrls1.perBankRdBursts::5             4631                       # Per bank write bursts
system.mem_ctrls1.perBankRdBursts::6             4426                       # Per bank write bursts
system.mem_ctrls1.perBankRdBursts::7             4426                       # Per bank write bursts
system.mem_ctrls1.perBankRdBursts::8             4377                       # Per bank write bursts
system.mem_ctrls1.perBankRdBursts::9             4671                       # Per bank write bursts
system.mem_ctrls1.perBankRdBursts::10            4400                       # Per bank write bursts
system.mem_ctrls1.perBankRdBursts::11            4614                       # Per bank write bursts
system.mem_ctrls1.perBankRdBursts::12            4228                       # Per bank write bursts
system.mem_ctrls1.perBankRdBursts::13            4084                       # Per bank write bursts
system.mem_ctrls1.perBankRdBursts::14            4274                       # Per bank write bursts
system.mem_ctrls1.perBankRdBursts::15            4399                       # Per bank write bursts
system.mem_ctrls1.perBankWrBursts::0             2710                       # Per bank write bursts
system.mem_ctrls1.perBankWrBursts::1             2714                       # Per bank write bursts
system.mem_ctrls1.perBankWrBursts::2             2691                       # Per bank write bursts
system.mem_ctrls1.perBankWrBursts::3             2773                       # Per bank write bursts
system.mem_ctrls1.perBankWrBursts::4             2699                       # Per bank write bursts
system.mem_ctrls1.perBankWrBursts::5             2831                       # Per bank write bursts
system.mem_ctrls1.perBankWrBursts::6             2643                       # Per bank write bursts
system.mem_ctrls1.perBankWrBursts::7             2732                       # Per bank write bursts
system.mem_ctrls1.perBankWrBursts::8             2629                       # Per bank write bursts
system.mem_ctrls1.perBankWrBursts::9             2805                       # Per bank write bursts
system.mem_ctrls1.perBankWrBursts::10            2661                       # Per bank write bursts
system.mem_ctrls1.perBankWrBursts::11            2586                       # Per bank write bursts
system.mem_ctrls1.perBankWrBursts::12            2527                       # Per bank write bursts
system.mem_ctrls1.perBankWrBursts::13            2553                       # Per bank write bursts
system.mem_ctrls1.perBankWrBursts::14            2708                       # Per bank write bursts
system.mem_ctrls1.perBankWrBursts::15            2652                       # Per bank write bursts
system.mem_ctrls1.numRdRetry                      350                       # Number of times read queue was full causing retry
system.mem_ctrls1.numWrRetry                     2125                       # Number of times write queue was full causing retry
system.mem_ctrls1.totGap                  38829035000                       # Total gap between requests
system.mem_ctrls1.readPktSize::0                    0                       # Read request sizes (log2)
system.mem_ctrls1.readPktSize::1                    0                       # Read request sizes (log2)
system.mem_ctrls1.readPktSize::2                    0                       # Read request sizes (log2)
system.mem_ctrls1.readPktSize::3                    0                       # Read request sizes (log2)
system.mem_ctrls1.readPktSize::4                    0                       # Read request sizes (log2)
system.mem_ctrls1.readPktSize::5                    0                       # Read request sizes (log2)
system.mem_ctrls1.readPktSize::6                71317                       # Read request sizes (log2)
system.mem_ctrls1.writePktSize::0                   0                       # Write request sizes (log2)
system.mem_ctrls1.writePktSize::1                   0                       # Write request sizes (log2)
system.mem_ctrls1.writePktSize::2                   0                       # Write request sizes (log2)
system.mem_ctrls1.writePktSize::3                   0                       # Write request sizes (log2)
system.mem_ctrls1.writePktSize::4                   0                       # Write request sizes (log2)
system.mem_ctrls1.writePktSize::5                   0                       # Write request sizes (log2)
system.mem_ctrls1.writePktSize::6               42916                       # Write request sizes (log2)
system.mem_ctrls1.rdQLenPdf::0                  44882                       # What read queue length does an incoming req see
system.mem_ctrls1.rdQLenPdf::1                   3802                       # What read queue length does an incoming req see
system.mem_ctrls1.rdQLenPdf::2                   3273                       # What read queue length does an incoming req see
system.mem_ctrls1.rdQLenPdf::3                   2938                       # What read queue length does an incoming req see
system.mem_ctrls1.rdQLenPdf::4                   2425                       # What read queue length does an incoming req see
system.mem_ctrls1.rdQLenPdf::5                   2049                       # What read queue length does an incoming req see
system.mem_ctrls1.rdQLenPdf::6                   1646                       # What read queue length does an incoming req see
system.mem_ctrls1.rdQLenPdf::7                   1433                       # What read queue length does an incoming req see
system.mem_ctrls1.rdQLenPdf::8                   1156                       # What read queue length does an incoming req see
system.mem_ctrls1.rdQLenPdf::9                    996                       # What read queue length does an incoming req see
system.mem_ctrls1.rdQLenPdf::10                   831                       # What read queue length does an incoming req see
system.mem_ctrls1.rdQLenPdf::11                   709                       # What read queue length does an incoming req see
system.mem_ctrls1.rdQLenPdf::12                   611                       # What read queue length does an incoming req see
system.mem_ctrls1.rdQLenPdf::13                   514                       # What read queue length does an incoming req see
system.mem_ctrls1.rdQLenPdf::14                   405                       # What read queue length does an incoming req see
system.mem_ctrls1.rdQLenPdf::15                   343                       # What read queue length does an incoming req see
system.mem_ctrls1.rdQLenPdf::16                   324                       # What read queue length does an incoming req see
system.mem_ctrls1.rdQLenPdf::17                   305                       # What read queue length does an incoming req see
system.mem_ctrls1.rdQLenPdf::18                   285                       # What read queue length does an incoming req see
system.mem_ctrls1.rdQLenPdf::19                   261                       # What read queue length does an incoming req see
system.mem_ctrls1.rdQLenPdf::20                   229                       # What read queue length does an incoming req see
system.mem_ctrls1.rdQLenPdf::21                   202                       # What read queue length does an incoming req see
system.mem_ctrls1.rdQLenPdf::22                   172                       # What read queue length does an incoming req see
system.mem_ctrls1.rdQLenPdf::23                   156                       # What read queue length does an incoming req see
system.mem_ctrls1.rdQLenPdf::24                   155                       # What read queue length does an incoming req see
system.mem_ctrls1.rdQLenPdf::25                   145                       # What read queue length does an incoming req see
system.mem_ctrls1.rdQLenPdf::26                   134                       # What read queue length does an incoming req see
system.mem_ctrls1.rdQLenPdf::27                   126                       # What read queue length does an incoming req see
system.mem_ctrls1.rdQLenPdf::28                   120                       # What read queue length does an incoming req see
system.mem_ctrls1.rdQLenPdf::29                   119                       # What read queue length does an incoming req see
system.mem_ctrls1.rdQLenPdf::30                    95                       # What read queue length does an incoming req see
system.mem_ctrls1.rdQLenPdf::31                   461                       # What read queue length does an incoming req see
system.mem_ctrls1.wrQLenPdf::0                   7422                       # What write queue length does an incoming req see
system.mem_ctrls1.wrQLenPdf::1                   7610                       # What write queue length does an incoming req see
system.mem_ctrls1.wrQLenPdf::2                   7766                       # What write queue length does an incoming req see
system.mem_ctrls1.wrQLenPdf::3                   7902                       # What write queue length does an incoming req see
system.mem_ctrls1.wrQLenPdf::4                   7980                       # What write queue length does an incoming req see
system.mem_ctrls1.wrQLenPdf::5                    725                       # What write queue length does an incoming req see
system.mem_ctrls1.wrQLenPdf::6                    712                       # What write queue length does an incoming req see
system.mem_ctrls1.wrQLenPdf::7                   2799                       # What write queue length does an incoming req see
system.mem_ctrls1.bytesPerActivate::samples        28599                       # Bytes accessed per row activation
system.mem_ctrls1.bytesPerActivate::mean   255.536767                       # Bytes accessed per row activation
system.mem_ctrls1.bytesPerActivate::gmean   176.016316                       # Bytes accessed per row activation
system.mem_ctrls1.bytesPerActivate::stdev   240.478178                       # Bytes accessed per row activation
system.mem_ctrls1.bytesPerActivate::0-127         9262     32.39%     32.39% # Bytes accessed per row activation
system.mem_ctrls1.bytesPerActivate::128-255         6711     23.47%     55.85% # Bytes accessed per row activation
system.mem_ctrls1.bytesPerActivate::256-383         7954     27.81%     83.66% # Bytes accessed per row activation
system.mem_ctrls1.bytesPerActivate::384-511         1196      4.18%     87.85% # Bytes accessed per row activation
system.mem_ctrls1.bytesPerActivate::512-639          857      3.00%     90.84% # Bytes accessed per row activation
system.mem_ctrls1.bytesPerActivate::640-767          544      1.90%     92.74% # Bytes accessed per row activation
system.mem_ctrls1.bytesPerActivate::768-895          483      1.69%     94.43% # Bytes accessed per row activation
system.mem_ctrls1.bytesPerActivate::896-1023          463      1.62%     96.05% # Bytes accessed per row activation
system.mem_ctrls1.bytesPerActivate::1024-1151         1129      3.95%    100.00% # Bytes accessed per row activation
system.mem_ctrls1.bytesPerActivate::total        28599                       # Bytes accessed per row activation
system.mem_ctrls1.rdPerTurnAround::samples         7644                       # Reads before turning the bus around for writes
system.mem_ctrls1.rdPerTurnAround::mean      9.323783                       # Reads before turning the bus around for writes
system.mem_ctrls1.rdPerTurnAround::stdev    37.381414                       # Reads before turning the bus around for writes
system.mem_ctrls1.rdPerTurnAround::0-127         7636     99.90%     99.90% # Reads before turning the bus around for writes
system.mem_ctrls1.rdPerTurnAround::128-255            6      0.08%     99.97% # Reads before turning the bus around for writes
system.mem_ctrls1.rdPerTurnAround::1152-1279            1      0.01%     99.99% # Reads before turning the bus around for writes
system.mem_ctrls1.rdPerTurnAround::2816-2943            1      0.01%    100.00% # Reads before turning the bus around for writes
system.mem_ctrls1.rdPerTurnAround::total         7644                       # Reads before turning the bus around for writes
system.mem_ctrls1.wrPerTurnAround::samples         7644                       # Writes before turning the bus around for reads
system.mem_ctrls1.wrPerTurnAround::mean      5.614076                       # Writes before turning the bus around for reads
system.mem_ctrls1.wrPerTurnAround::gmean     5.382401                       # Writes before turning the bus around for reads
system.mem_ctrls1.wrPerTurnAround::stdev     2.224409                       # Writes before turning the bus around for reads
system.mem_ctrls1.wrPerTurnAround::4-7           7132     93.30%     93.30% # Writes before turning the bus around for reads
system.mem_ctrls1.wrPerTurnAround::8-11           156      2.04%     95.34% # Writes before turning the bus around for reads
system.mem_ctrls1.wrPerTurnAround::12-15          115      1.50%     96.85% # Writes before turning the bus around for reads
system.mem_ctrls1.wrPerTurnAround::16-19          241      3.15%    100.00% # Writes before turning the bus around for reads
system.mem_ctrls1.wrPerTurnAround::total         7644                       # Writes before turning the bus around for reads
system.mem_ctrls1.totQLat                  3037902633                       # Total ticks spent queuing
system.mem_ctrls1.totMemAccLat             4374815133                       # Total ticks spent from burst creation until serviced by the DRAM
system.mem_ctrls1.totBusLat                 356510000                       # Total ticks spent in databus transfers
system.mem_ctrls1.avgQLat                    42606.13                       # Average queueing delay per DRAM burst
system.mem_ctrls1.avgBusLat                   5000.00                       # Average bus latency per DRAM burst
system.mem_ctrls1.avgMemAccLat               61356.13                       # Average memory access latency per DRAM burst
system.mem_ctrls1.avgRdBW                      117.52                       # Average DRAM read bandwidth in MiByte/s
system.mem_ctrls1.avgWrBW                       70.73                       # Average achieved write bandwidth in MiByte/s
system.mem_ctrls1.avgRdBWSys                   117.55                       # Average system read bandwidth in MiByte/s
system.mem_ctrls1.avgWrBWSys                    70.73                       # Average system write bandwidth in MiByte/s
system.mem_ctrls1.peakBW                     12800.00                       # Theoretical peak bandwidth in MiByte/s
system.mem_ctrls1.busUtil                        1.47                       # Data bus utilization in percentage
system.mem_ctrls1.busUtilRead                    0.92                       # Data bus utilization in percentage for reads
system.mem_ctrls1.busUtilWrite                   0.55                       # Data bus utilization in percentage for writes
system.mem_ctrls1.avgRdQLen                      1.11                       # Average read queue length when enqueuing
system.mem_ctrls1.avgWrQLen                      2.86                       # Average write queue length when enqueuing
system.mem_ctrls1.readRowHits                   55781                       # Number of row buffer hits during reads
system.mem_ctrls1.writeRowHits                  29830                       # Number of row buffer hits during writes
system.mem_ctrls1.readRowHitRate                78.23                       # Row buffer hit rate for reads
system.mem_ctrls1.writeRowHitRate               69.51                       # Row buffer hit rate for writes
system.mem_ctrls1.avgGap                    339910.84                       # Average gap between requests
system.mem_ctrls1.pageHitRate                   74.95                       # Row buffer hit rate, read and write combined
system.mem_ctrls1.memoryStateTime::IDLE   10617688000                       # Time in different power states
system.mem_ctrls1.memoryStateTime::REF     1296360000                       # Time in different power states
system.mem_ctrls1.memoryStateTime::PRE_PDN            0                       # Time in different power states
system.mem_ctrls1.memoryStateTime::ACT    26908495250                       # Time in different power states
system.mem_ctrls1.memoryStateTime::ACT_PDN            0                       # Time in different power states
system.mem_ctrls1.actEnergy::0              112696920                       # Energy for activate commands per rank (pJ)
system.mem_ctrls1.actEnergy::1              103383000                       # Energy for activate commands per rank (pJ)
system.mem_ctrls1.preEnergy::0               61491375                       # Energy for precharge commands per rank (pJ)
system.mem_ctrls1.preEnergy::1               56409375                       # Energy for precharge commands per rank (pJ)
system.mem_ctrls1.readEnergy::0             281931000                       # Energy for read commands per rank (pJ)
system.mem_ctrls1.readEnergy::1             273273000                       # Energy for read commands per rank (pJ)
system.mem_ctrls1.writeEnergy::0            141121440                       # Energy for write commands per rank (pJ)
system.mem_ctrls1.writeEnergy::1            136857600                       # Energy for write commands per rank (pJ)
system.mem_ctrls1.refreshEnergy::0         2535680160                       # Energy for refresh commands per rank (pJ)
system.mem_ctrls1.refreshEnergy::1         2535680160                       # Energy for refresh commands per rank (pJ)
system.mem_ctrls1.actBackEnergy::0        14043803355                       # Energy for active background per rank (pJ)
system.mem_ctrls1.actBackEnergy::1        13363931295                       # Energy for active background per rank (pJ)
system.mem_ctrls1.preBackEnergy::0        10974392250                       # Energy for precharge background per rank (pJ)
system.mem_ctrls1.preBackEnergy::1        11570771250                       # Energy for precharge background per rank (pJ)
system.mem_ctrls1.totalEnergy::0          28151116500                       # Total energy per rank (pJ)
system.mem_ctrls1.totalEnergy::1          28040305680                       # Total energy per rank (pJ)
system.mem_ctrls1.averagePower::0          725.123182                       # Core power per rank (mW)
system.mem_ctrls1.averagePower::1          722.268891                       # Core power per rank (mW)
system.mem_ctrls2.bytes_read::ruby.dir_cntrl2      4566656                       # Number of bytes read from this memory
system.mem_ctrls2.bytes_read::total           4566656                       # Number of bytes read from this memory
system.mem_ctrls2.bytes_written::ruby.dir_cntrl2      2748160                       # Number of bytes written to this memory
system.mem_ctrls2.bytes_written::total        2748160                       # Number of bytes written to this memory
system.mem_ctrls2.num_reads::ruby.dir_cntrl2        71354                       # Number of read requests responded to by this memory
system.mem_ctrls2.num_reads::total              71354                       # Number of read requests responded to by this memory
system.mem_ctrls2.num_writes::ruby.dir_cntrl2        42940                       # Number of write requests responded to by this memory
system.mem_ctrls2.num_writes::total             42940                       # Number of write requests responded to by this memory
system.mem_ctrls2.bw_read::ruby.dir_cntrl2    117606994                       # Total read bandwidth from this memory (bytes/s)
system.mem_ctrls2.bw_read::total            117606994                       # Total read bandwidth from this memory (bytes/s)
system.mem_ctrls2.bw_write::ruby.dir_cntrl2     70774509                       # Write bandwidth from this memory (bytes/s)
system.mem_ctrls2.bw_write::total            70774509                       # Write bandwidth from this memory (bytes/s)
system.mem_ctrls2.bw_total::ruby.dir_cntrl2    188381503                       # Total bandwidth to/from this memory (bytes/s)
system.mem_ctrls2.bw_total::total           188381503                       # Total bandwidth to/from this memory (bytes/s)
system.mem_ctrls2.readReqs                      71354                       # Number of read requests accepted
system.mem_ctrls2.writeReqs                     42940                       # Number of write requests accepted
system.mem_ctrls2.readBursts                    71354                       # Number of DRAM read bursts, including those serviced by the write queue
system.mem_ctrls2.writeBursts                   42940                       # Number of DRAM write bursts, including those merged in the write queue
system.mem_ctrls2.bytesReadDRAM               4565696                       # Total number of bytes read from DRAM
system.mem_ctrls2.bytesReadWrQ                    960                       # Total number of bytes read from write queue
system.mem_ctrls2.bytesWritten                2748160                       # Total number of bytes written to DRAM
system.mem_ctrls2.bytesReadSys                4566656                       # Total read bytes from the system interface side
system.mem_ctrls2.bytesWrittenSys             2748160                       # Total written bytes from the system interface side
system.mem_ctrls2.servicedByWrQ                    15                       # Number of DRAM read bursts serviced by the write queue
system.mem_ctrls2.mergedWrBursts                    0                       # Number of DRAM write bursts merged with an existing one
system.mem_ctrls2.neitherReadNorWriteReqs            0                       # Number of requests that are neither read nor write
system.mem_ctrls2.perBankRdBursts::0             4292                       # Per bank write bursts
system.mem_ctrls2.perBankRdBursts::1             4781                       # Per bank write bursts
system.mem_ctrls2.perBankRdBursts::2             4434                       # Per bank write bursts
system.mem_ctrls2.perBankRdBursts::3             4798                       # Per bank write bursts
system.mem_ctrls2.perBankRdBursts::4             4535                       # Per bank write bursts
system.mem_ctrls2.perBankRdBursts::5             4626                       # Per bank write bursts
system.mem_ctrls2.perBankRdBursts::6             4418                       # Per bank write bursts
system.mem_ctrls2.perBankRdBursts::7             4419                       # Per bank write bursts
system.mem_ctrls2.perBankRdBursts::8             4357                       # Per bank write bursts
system.mem_ctrls2.perBankRdBursts::9             4653                       # Per bank write bursts
system.mem_ctrls2.perBankRdBursts::10            4395                       # Per bank write bursts
system.mem_ctrls2.perBankRdBursts::11            4652                       # Per bank write bursts
system.mem_ctrls2.perBankRdBursts::12            4240                       # Per bank write bursts
system.mem_ctrls2.perBankRdBursts::13            4073                       # Per bank write bursts
system.mem_ctrls2.perBankRdBursts::14            4263                       # Per bank write bursts
system.mem_ctrls2.perBankRdBursts::15            4403                       # Per bank write bursts
system.mem_ctrls2.perBankWrBursts::0             2703                       # Per bank write bursts
system.mem_ctrls2.perBankWrBursts::1             2712                       # Per bank write bursts
system.mem_ctrls2.perBankWrBursts::2             2688                       # Per bank write bursts
system.mem_ctrls2.perBankWrBursts::3             2789                       # Per bank write bursts
system.mem_ctrls2.perBankWrBursts::4             2697                       # Per bank write bursts
system.mem_ctrls2.perBankWrBursts::5             2822                       # Per bank write bursts
system.mem_ctrls2.perBankWrBursts::6             2646                       # Per bank write bursts
system.mem_ctrls2.perBankWrBursts::7             2734                       # Per bank write bursts
system.mem_ctrls2.perBankWrBursts::8             2629                       # Per bank write bursts
system.mem_ctrls2.perBankWrBursts::9             2811                       # Per bank write bursts
system.mem_ctrls2.perBankWrBursts::10            2656                       # Per bank write bursts
system.mem_ctrls2.perBankWrBursts::11            2599                       # Per bank write bursts
system.mem_ctrls2.perBankWrBursts::12            2537                       # Per bank write bursts
system.mem_ctrls2.perBankWrBursts::13            2548                       # Per bank write bursts
system.mem_ctrls2.perBankWrBursts::14            2715                       # Per bank write bursts
system.mem_ctrls2.perBankWrBursts::15            2654                       # Per bank write bursts
system.mem_ctrls2.numRdRetry                      288                       # Number of times read queue was full causing retry
system.mem_ctrls2.numWrRetry                     2179                       # Number of times write queue was full causing retry
system.mem_ctrls2.totGap                  38829273500                       # Total gap between requests
system.mem_ctrls2.readPktSize::0                    0                       # Read request sizes (log2)
system.mem_ctrls2.readPktSize::1                    0                       # Read request sizes (log2)
system.mem_ctrls2.readPktSize::2                    0                       # Read request sizes (log2)
system.mem_ctrls2.readPktSize::3                    0                       # Read request sizes (log2)
system.mem_ctrls2.readPktSize::4                    0                       # Read request sizes (log2)
system.mem_ctrls2.readPktSize::5                    0                       # Read request sizes (log2)
system.mem_ctrls2.readPktSize::6                71354                       # Read request sizes (log2)
system.mem_ctrls2.writePktSize::0                   0                       # Write request sizes (log2)
system.mem_ctrls2.writePktSize::1                   0                       # Write request sizes (log2)
system.mem_ctrls2.writePktSize::2                   0                       # Write request sizes (log2)
system.mem_ctrls2.writePktSize::3                   0                       # Write request sizes (log2)
system.mem_ctrls2.writePktSize::4                   0                       # Write request sizes (log2)
system.mem_ctrls2.writePktSize::5                   0                       # Write request sizes (log2)
system.mem_ctrls2.writePktSize::6               42940                       # Write request sizes (log2)
system.mem_ctrls2.rdQLenPdf::0                  45085                       # What read queue length does an incoming req see
system.mem_ctrls2.rdQLenPdf::1                   3888                       # What read queue length does an incoming req see
system.mem_ctrls2.rdQLenPdf::2                   3517                       # What read queue length does an incoming req see
system.mem_ctrls2.rdQLenPdf::3                   2977                       # What read queue length does an incoming req see
system.mem_ctrls2.rdQLenPdf::4                   2391                       # What read queue length does an incoming req see
system.mem_ctrls2.rdQLenPdf::5                   1853                       # What read queue length does an incoming req see
system.mem_ctrls2.rdQLenPdf::6                   1645                       # What read queue length does an incoming req see
system.mem_ctrls2.rdQLenPdf::7                   1344                       # What read queue length does an incoming req see
system.mem_ctrls2.rdQLenPdf::8                   1119                       # What read queue length does an incoming req see
system.mem_ctrls2.rdQLenPdf::9                    948                       # What read queue length does an incoming req see
system.mem_ctrls2.rdQLenPdf::10                   797                       # What read queue length does an incoming req see
system.mem_ctrls2.rdQLenPdf::11                   714                       # What read queue length does an incoming req see
system.mem_ctrls2.rdQLenPdf::12                   608                       # What read queue length does an incoming req see
system.mem_ctrls2.rdQLenPdf::13                   510                       # What read queue length does an incoming req see
system.mem_ctrls2.rdQLenPdf::14                   426                       # What read queue length does an incoming req see
system.mem_ctrls2.rdQLenPdf::15                   381                       # What read queue length does an incoming req see
system.mem_ctrls2.rdQLenPdf::16                   338                       # What read queue length does an incoming req see
system.mem_ctrls2.rdQLenPdf::17                   317                       # What read queue length does an incoming req see
system.mem_ctrls2.rdQLenPdf::18                   263                       # What read queue length does an incoming req see
system.mem_ctrls2.rdQLenPdf::19                   253                       # What read queue length does an incoming req see
system.mem_ctrls2.rdQLenPdf::20                   213                       # What read queue length does an incoming req see
system.mem_ctrls2.rdQLenPdf::21                   198                       # What read queue length does an incoming req see
system.mem_ctrls2.rdQLenPdf::22                   164                       # What read queue length does an incoming req see
system.mem_ctrls2.rdQLenPdf::23                   162                       # What read queue length does an incoming req see
system.mem_ctrls2.rdQLenPdf::24                   153                       # What read queue length does an incoming req see
system.mem_ctrls2.rdQLenPdf::25                   154                       # What read queue length does an incoming req see
system.mem_ctrls2.rdQLenPdf::26                   142                       # What read queue length does an incoming req see
system.mem_ctrls2.rdQLenPdf::27                   129                       # What read queue length does an incoming req see
system.mem_ctrls2.rdQLenPdf::28                   110                       # What read queue length does an incoming req see
system.mem_ctrls2.rdQLenPdf::29                    86                       # What read queue length does an incoming req see
system.mem_ctrls2.rdQLenPdf::30                    81                       # What read queue length does an incoming req see
system.mem_ctrls2.rdQLenPdf::31                   373                       # What read queue length does an incoming req see
system.mem_ctrls2.wrQLenPdf::0                   7437                       # What write queue length does an incoming req see
system.mem_ctrls2.wrQLenPdf::1                   7634                       # What write queue length does an incoming req see
system.mem_ctrls2.wrQLenPdf::2                   7773                       # What write queue length does an incoming req see
system.mem_ctrls2.wrQLenPdf::3                   7888                       # What write queue length does an incoming req see
system.mem_ctrls2.wrQLenPdf::4                   8016                       # What write queue length does an incoming req see
system.mem_ctrls2.wrQLenPdf::5                    737                       # What write queue length does an incoming req see
system.mem_ctrls2.wrQLenPdf::6                    674                       # What write queue length does an incoming req see
system.mem_ctrls2.wrQLenPdf::7                   2781                       # What write queue length does an incoming req see
system.mem_ctrls2.bytesPerActivate::samples        28603                       # Bytes accessed per row activation
system.mem_ctrls2.bytesPerActivate::mean   255.684509                       # Bytes accessed per row activation
system.mem_ctrls2.bytesPerActivate::gmean   176.290702                       # Bytes accessed per row activation
system.mem_ctrls2.bytesPerActivate::stdev   240.213128                       # Bytes accessed per row activation
system.mem_ctrls2.bytesPerActivate::0-127         9284     32.46%     32.46% # Bytes accessed per row activation
system.mem_ctrls2.bytesPerActivate::128-255         6602     23.08%     55.54% # Bytes accessed per row activation
system.mem_ctrls2.bytesPerActivate::256-383         8154     28.51%     84.05% # Bytes accessed per row activation
system.mem_ctrls2.bytesPerActivate::384-511         1091      3.81%     87.86% # Bytes accessed per row activation
system.mem_ctrls2.bytesPerActivate::512-639          812      2.84%     90.70% # Bytes accessed per row activation
system.mem_ctrls2.bytesPerActivate::640-767          620      2.17%     92.87% # Bytes accessed per row activation
system.mem_ctrls2.bytesPerActivate::768-895          449      1.57%     94.44% # Bytes accessed per row activation
system.mem_ctrls2.bytesPerActivate::896-1023          445      1.56%     95.99% # Bytes accessed per row activation
system.mem_ctrls2.bytesPerActivate::1024-1151         1146      4.01%    100.00% # Bytes accessed per row activation
system.mem_ctrls2.bytesPerActivate::total        28603                       # Bytes accessed per row activation
system.mem_ctrls2.rdPerTurnAround::samples         7661                       # Reads before turning the bus around for writes
system.mem_ctrls2.rdPerTurnAround::mean      9.311448                       # Reads before turning the bus around for writes
system.mem_ctrls2.rdPerTurnAround::stdev    37.445391                       # Reads before turning the bus around for writes
system.mem_ctrls2.rdPerTurnAround::0-127         7656     99.93%     99.93% # Reads before turning the bus around for writes
system.mem_ctrls2.rdPerTurnAround::128-255            3      0.04%     99.97% # Reads before turning the bus around for writes
system.mem_ctrls2.rdPerTurnAround::1152-1279            1      0.01%     99.99% # Reads before turning the bus around for writes
system.mem_ctrls2.rdPerTurnAround::2816-2943            1      0.01%    100.00% # Reads before turning the bus around for writes
system.mem_ctrls2.rdPerTurnAround::total         7661                       # Reads before turning the bus around for writes
system.mem_ctrls2.wrPerTurnAround::samples         7661                       # Writes before turning the bus around for reads
system.mem_ctrls2.wrPerTurnAround::mean      5.605012                       # Writes before turning the bus around for reads
system.mem_ctrls2.wrPerTurnAround::gmean     5.373930                       # Writes before turning the bus around for reads
system.mem_ctrls2.wrPerTurnAround::stdev     2.227609                       # Writes before turning the bus around for reads
system.mem_ctrls2.wrPerTurnAround::4-7           7161     93.47%     93.47% # Writes before turning the bus around for reads
system.mem_ctrls2.wrPerTurnAround::8-11           150      1.96%     95.43% # Writes before turning the bus around for reads
system.mem_ctrls2.wrPerTurnAround::12-15          103      1.34%     96.78% # Writes before turning the bus around for reads
system.mem_ctrls2.wrPerTurnAround::16-19          247      3.22%    100.00% # Writes before turning the bus around for reads
system.mem_ctrls2.wrPerTurnAround::total         7661                       # Writes before turning the bus around for reads
system.mem_ctrls2.totQLat                  3015987936                       # Total ticks spent queuing
system.mem_ctrls2.totMemAccLat             4353594186                       # Total ticks spent from burst creation until serviced by the DRAM
system.mem_ctrls2.totBusLat                 356695000                       # Total ticks spent in databus transfers
system.mem_ctrls2.avgQLat                    42276.85                       # Average queueing delay per DRAM burst
system.mem_ctrls2.avgBusLat                   5000.00                       # Average bus latency per DRAM burst
system.mem_ctrls2.avgMemAccLat               61026.85                       # Average memory access latency per DRAM burst
system.mem_ctrls2.avgRdBW                      117.58                       # Average DRAM read bandwidth in MiByte/s
system.mem_ctrls2.avgWrBW                       70.77                       # Average achieved write bandwidth in MiByte/s
system.mem_ctrls2.avgRdBWSys                   117.61                       # Average system read bandwidth in MiByte/s
system.mem_ctrls2.avgWrBWSys                    70.77                       # Average system write bandwidth in MiByte/s
system.mem_ctrls2.peakBW                     12800.00                       # Theoretical peak bandwidth in MiByte/s
system.mem_ctrls2.busUtil                        1.47                       # Data bus utilization in percentage
system.mem_ctrls2.busUtilRead                    0.92                       # Data bus utilization in percentage for reads
system.mem_ctrls2.busUtilWrite                   0.55                       # Data bus utilization in percentage for writes
system.mem_ctrls2.avgRdQLen                      1.10                       # Average read queue length when enqueuing
system.mem_ctrls2.avgWrQLen                      2.88                       # Average write queue length when enqueuing
system.mem_ctrls2.readRowHits                   55764                       # Number of row buffer hits during reads
system.mem_ctrls2.writeRowHits                  29907                       # Number of row buffer hits during writes
system.mem_ctrls2.readRowHitRate                78.17                       # Row buffer hit rate for reads
system.mem_ctrls2.writeRowHitRate               69.65                       # Row buffer hit rate for writes
system.mem_ctrls2.avgGap                    339731.51                       # Average gap between requests
system.mem_ctrls2.pageHitRate                   74.97                       # Row buffer hit rate, read and write combined
system.mem_ctrls2.memoryStateTime::IDLE   10522935000                       # Time in different power states
system.mem_ctrls2.memoryStateTime::REF     1296360000                       # Time in different power states
system.mem_ctrls2.memoryStateTime::PRE_PDN            0                       # Time in different power states
system.mem_ctrls2.memoryStateTime::ACT    27003221250                       # Time in different power states
system.mem_ctrls2.memoryStateTime::ACT_PDN            0                       # Time in different power states
system.mem_ctrls2.actEnergy::0              112833000                       # Energy for activate commands per rank (pJ)
system.mem_ctrls2.actEnergy::1              103239360                       # Energy for activate commands per rank (pJ)
system.mem_ctrls2.preEnergy::0               61565625                       # Energy for precharge commands per rank (pJ)
system.mem_ctrls2.preEnergy::1               56331000                       # Energy for precharge commands per rank (pJ)
system.mem_ctrls2.readEnergy::0             282289800                       # Energy for read commands per rank (pJ)
system.mem_ctrls2.readEnergy::1             273210600                       # Energy for read commands per rank (pJ)
system.mem_ctrls2.writeEnergy::0            141082560                       # Energy for write commands per rank (pJ)
system.mem_ctrls2.writeEnergy::1            137032560                       # Energy for write commands per rank (pJ)
system.mem_ctrls2.refreshEnergy::0         2535680160                       # Energy for refresh commands per rank (pJ)
system.mem_ctrls2.refreshEnergy::1         2535680160                       # Energy for refresh commands per rank (pJ)
system.mem_ctrls2.actBackEnergy::0        14085207585                       # Energy for active background per rank (pJ)
system.mem_ctrls2.actBackEnergy::1        13437982845                       # Energy for active background per rank (pJ)
system.mem_ctrls2.preBackEnergy::0        10938056250                       # Energy for precharge background per rank (pJ)
system.mem_ctrls2.preBackEnergy::1        11505797250                       # Energy for precharge background per rank (pJ)
system.mem_ctrls2.totalEnergy::0          28156714980                       # Total energy per rank (pJ)
system.mem_ctrls2.totalEnergy::1          28049273775                       # Total energy per rank (pJ)
system.mem_ctrls2.averagePower::0          725.267903                       # Core power per rank (mW)
system.mem_ctrls2.averagePower::1          722.500405                       # Core power per rank (mW)
system.mem_ctrls3.bytes_read::ruby.dir_cntrl3      4548544                       # Number of bytes read from this memory
system.mem_ctrls3.bytes_read::total           4548544                       # Number of bytes read from this memory
system.mem_ctrls3.bytes_written::ruby.dir_cntrl3      2743616                       # Number of bytes written to this memory
system.mem_ctrls3.bytes_written::total        2743616                       # Number of bytes written to this memory
system.mem_ctrls3.num_reads::ruby.dir_cntrl3        71071                       # Number of read requests responded to by this memory
system.mem_ctrls3.num_reads::total              71071                       # Number of read requests responded to by this memory
system.mem_ctrls3.num_writes::ruby.dir_cntrl3        42869                       # Number of write requests responded to by this memory
system.mem_ctrls3.num_writes::total             42869                       # Number of write requests responded to by this memory
system.mem_ctrls3.bw_read::ruby.dir_cntrl3    117140548                       # Total read bandwidth from this memory (bytes/s)
system.mem_ctrls3.bw_read::total            117140548                       # Total read bandwidth from this memory (bytes/s)
system.mem_ctrls3.bw_write::ruby.dir_cntrl3     70657486                       # Write bandwidth from this memory (bytes/s)
system.mem_ctrls3.bw_write::total            70657486                       # Write bandwidth from this memory (bytes/s)
system.mem_ctrls3.bw_total::ruby.dir_cntrl3    187798034                       # Total bandwidth to/from this memory (bytes/s)
system.mem_ctrls3.bw_total::total           187798034                       # Total bandwidth to/from this memory (bytes/s)
system.mem_ctrls3.readReqs                      71072                       # Number of read requests accepted
system.mem_ctrls3.writeReqs                     42869                       # Number of write requests accepted
system.mem_ctrls3.readBursts                    71072                       # Number of DRAM read bursts, including those serviced by the write queue
system.mem_ctrls3.writeBursts                   42869                       # Number of DRAM write bursts, including those merged in the write queue
system.mem_ctrls3.bytesReadDRAM               4548160                       # Total number of bytes read from DRAM
system.mem_ctrls3.bytesReadWrQ                    448                       # Total number of bytes read from write queue
system.mem_ctrls3.bytesWritten                2743488                       # Total number of bytes written to DRAM
system.mem_ctrls3.bytesReadSys                4548608                       # Total read bytes from the system interface side
system.mem_ctrls3.bytesWrittenSys             2743616                       # Total written bytes from the system interface side
system.mem_ctrls3.servicedByWrQ                     7                       # Number of DRAM read bursts serviced by the write queue
system.mem_ctrls3.mergedWrBursts                    0                       # Number of DRAM write bursts merged with an existing one
system.mem_ctrls3.neitherReadNorWriteReqs            0                       # Number of requests that are neither read nor write
system.mem_ctrls3.perBankRdBursts::0             4281                       # Per bank write bursts
system.mem_ctrls3.perBankRdBursts::1             4737                       # Per bank write bursts
system.mem_ctrls3.perBankRdBursts::2             4407                       # Per bank write bursts
system.mem_ctrls3.perBankRdBursts::3             4759                       # Per bank write bursts
system.mem_ctrls3.perBankRdBursts::4             4487                       # Per bank write bursts
system.mem_ctrls3.perBankRdBursts::5             4595                       # Per bank write bursts
system.mem_ctrls3.perBankRdBursts::6             4405                       # Per bank write bursts
system.mem_ctrls3.perBankRdBursts::7             4417                       # Per bank write bursts
system.mem_ctrls3.perBankRdBursts::8             4365                       # Per bank write bursts
system.mem_ctrls3.perBankRdBursts::9             4633                       # Per bank write bursts
system.mem_ctrls3.perBankRdBursts::10            4406                       # Per bank write bursts
system.mem_ctrls3.perBankRdBursts::11            4620                       # Per bank write bursts
system.mem_ctrls3.perBankRdBursts::12            4224                       # Per bank write bursts
system.mem_ctrls3.perBankRdBursts::13            4052                       # Per bank write bursts
system.mem_ctrls3.perBankRdBursts::14            4276                       # Per bank write bursts
system.mem_ctrls3.perBankRdBursts::15            4401                       # Per bank write bursts
system.mem_ctrls3.perBankWrBursts::0             2708                       # Per bank write bursts
system.mem_ctrls3.perBankWrBursts::1             2700                       # Per bank write bursts
system.mem_ctrls3.perBankWrBursts::2             2689                       # Per bank write bursts
system.mem_ctrls3.perBankWrBursts::3             2773                       # Per bank write bursts
system.mem_ctrls3.perBankWrBursts::4             2690                       # Per bank write bursts
system.mem_ctrls3.perBankWrBursts::5             2817                       # Per bank write bursts
system.mem_ctrls3.perBankWrBursts::6             2639                       # Per bank write bursts
system.mem_ctrls3.perBankWrBursts::7             2726                       # Per bank write bursts
system.mem_ctrls3.perBankWrBursts::8             2625                       # Per bank write bursts
system.mem_ctrls3.perBankWrBursts::9             2804                       # Per bank write bursts
system.mem_ctrls3.perBankWrBursts::10            2651                       # Per bank write bursts
system.mem_ctrls3.perBankWrBursts::11            2605                       # Per bank write bursts
system.mem_ctrls3.perBankWrBursts::12            2530                       # Per bank write bursts
system.mem_ctrls3.perBankWrBursts::13            2555                       # Per bank write bursts
system.mem_ctrls3.perBankWrBursts::14            2707                       # Per bank write bursts
system.mem_ctrls3.perBankWrBursts::15            2648                       # Per bank write bursts
system.mem_ctrls3.numRdRetry                      369                       # Number of times read queue was full causing retry
system.mem_ctrls3.numWrRetry                     2395                       # Number of times write queue was full causing retry
system.mem_ctrls3.totGap                  38829057000                       # Total gap between requests
system.mem_ctrls3.readPktSize::0                    0                       # Read request sizes (log2)
system.mem_ctrls3.readPktSize::1                    0                       # Read request sizes (log2)
system.mem_ctrls3.readPktSize::2                    0                       # Read request sizes (log2)
system.mem_ctrls3.readPktSize::3                    0                       # Read request sizes (log2)
system.mem_ctrls3.readPktSize::4                    0                       # Read request sizes (log2)
system.mem_ctrls3.readPktSize::5                    0                       # Read request sizes (log2)
system.mem_ctrls3.readPktSize::6                71072                       # Read request sizes (log2)
system.mem_ctrls3.writePktSize::0                   0                       # Write request sizes (log2)
system.mem_ctrls3.writePktSize::1                   0                       # Write request sizes (log2)
system.mem_ctrls3.writePktSize::2                   0                       # Write request sizes (log2)
system.mem_ctrls3.writePktSize::3                   0                       # Write request sizes (log2)
system.mem_ctrls3.writePktSize::4                   0                       # Write request sizes (log2)
system.mem_ctrls3.writePktSize::5                   0                       # Write request sizes (log2)
system.mem_ctrls3.writePktSize::6               42869                       # Write request sizes (log2)
system.mem_ctrls3.rdQLenPdf::0                  44632                       # What read queue length does an incoming req see
system.mem_ctrls3.rdQLenPdf::1                   3498                       # What read queue length does an incoming req see
system.mem_ctrls3.rdQLenPdf::2                   2993                       # What read queue length does an incoming req see
system.mem_ctrls3.rdQLenPdf::3                   2703                       # What read queue length does an incoming req see
system.mem_ctrls3.rdQLenPdf::4                   2354                       # What read queue length does an incoming req see
system.mem_ctrls3.rdQLenPdf::5                   2035                       # What read queue length does an incoming req see
system.mem_ctrls3.rdQLenPdf::6                   1724                       # What read queue length does an incoming req see
system.mem_ctrls3.rdQLenPdf::7                   1437                       # What read queue length does an incoming req see
system.mem_ctrls3.rdQLenPdf::8                   1257                       # What read queue length does an incoming req see
system.mem_ctrls3.rdQLenPdf::9                   1099                       # What read queue length does an incoming req see
system.mem_ctrls3.rdQLenPdf::10                   906                       # What read queue length does an incoming req see
system.mem_ctrls3.rdQLenPdf::11                   785                       # What read queue length does an incoming req see
system.mem_ctrls3.rdQLenPdf::12                   653                       # What read queue length does an incoming req see
system.mem_ctrls3.rdQLenPdf::13                   553                       # What read queue length does an incoming req see
system.mem_ctrls3.rdQLenPdf::14                   488                       # What read queue length does an incoming req see
system.mem_ctrls3.rdQLenPdf::15                   407                       # What read queue length does an incoming req see
system.mem_ctrls3.rdQLenPdf::16                   362                       # What read queue length does an incoming req see
system.mem_ctrls3.rdQLenPdf::17                   318                       # What read queue length does an incoming req see
system.mem_ctrls3.rdQLenPdf::18                   291                       # What read queue length does an incoming req see
system.mem_ctrls3.rdQLenPdf::19                   297                       # What read queue length does an incoming req see
system.mem_ctrls3.rdQLenPdf::20                   262                       # What read queue length does an incoming req see
system.mem_ctrls3.rdQLenPdf::21                   238                       # What read queue length does an incoming req see
system.mem_ctrls3.rdQLenPdf::22                   192                       # What read queue length does an incoming req see
system.mem_ctrls3.rdQLenPdf::23                   168                       # What read queue length does an incoming req see
system.mem_ctrls3.rdQLenPdf::24                   169                       # What read queue length does an incoming req see
[...]
system.ruby.L2Cache_Controller.IS.Mem_Data::total        12368                      
system.ruby.L2Cache_Controller.IM.L1_GETX |           5    100.00%    100.00% |           0      0.00%    100.00% |           0      0.00%    100.00% |           0      0.00%    100.00% |           0      0.00%    100.00% |           0      0.00%    100.00% |           0      0.00%    100.00% |           0      0.00%    100.00% |           0      0.00%    100.00% |           0      0.00%    100.00% |           0      0.00%    100.00% |           0      0.00%    100.00% |           0      0.00%    100.00% |           0      0.00%    100.00% |           0      0.00%    100.00% |           0      0.00%    100.00% |           0      0.00%    100.00% |           0      0.00%    100.00% |           0      0.00%    100.00% |           0      0.00%    100.00% |           0      0.00%    100.00% |           0      0.00%    100.00% |           0      0.00%    100.00% |           0      0.00%    100.00% |           0      0.00%    100.00% |           0      0.00%    100.00% |           0      0.00%    100.00% |           0      0.00%    100.00% |           0      0.00%    100.00% |           0      0.00%    100.00% |           0      0.00%    100.00% |           0      0.00%    100.00%
system.ruby.L2Cache_Controller.IM.L1_GETX::total            5                      
system.ruby.L2Cache_Controller.IM.Mem_Data |        4705      3.12%      3.12% |        4697      3.12%      6.24% |        4706      3.12%      9.37% |        4713      3.13%     12.50% |        4704      3.12%     15.62% |        4711      3.13%     18.75% |        4710      3.13%     21.88% |        4694      3.12%     24.99% |        4710      3.13%     28.12% |        4711      3.13%     31.25% |        4696      3.12%     34.37% |        4715      3.13%     37.50% |        4700      3.12%     40.62% |        4703      3.12%     43.74% |        4702      3.12%     46.86% |        4698      3.12%     49.98% |        4716      3.13%     53.11% |        4710      3.13%     56.24% |        4712      3.13%     59.37% |        4706      3.12%     62.50% |        4709      3.13%     65.62% |        4723      3.14%     68.76% |        4701      3.12%     71.88% |        4707      3.13%     75.01% |        4720      3.13%     78.14% |        4710      3.13%     81.27% |        4716      3.13%     84.40% |        4702      3.12%     87.52% |        4703      3.12%     90.64% |        4699      3.12%     93.76% |        4703      3.12%     96.89% |        4688      3.11%    100.00%
system.ruby.L2Cache_Controller.IM.Mem_Data::total       150600                      
system.ruby.L2Cache_Controller.SS_MB.Exclusive_Unblock |           3      6.82%      6.82% |           6     13.64%     20.45% |           3      6.82%     27.27% |           4      9.09%     36.36% |           0      0.00%     36.36% |           0      0.00%     36.36% |           0      0.00%     36.36% |           0      0.00%     36.36% |           0      0.00%     36.36% |           0      0.00%     36.36% |           0      0.00%     36.36% |           0      0.00%     36.36% |           3      6.82%     43.18% |           0      0.00%     43.18% |           4      9.09%     52.27% |           0      0.00%     52.27% |           1      2.27%     54.55% |           0      0.00%     54.55% |          11     25.00%     79.55% |           2      4.55%     84.09% |           0      0.00%     84.09% |           1      2.27%     86.36% |           0      0.00%     86.36% |           1      2.27%     88.64% |           1      2.27%     90.91% |           0      0.00%     90.91% |           1      2.27%     93.18% |           2      4.55%     97.73% |           1      2.27%    100.00% |           0      0.00%    100.00% |           0      0.00%    100.00% |           0      0.00%    100.00%
system.ruby.L2Cache_Controller.SS_MB.Exclusive_Unblock::total           44                      
system.ruby.L2Cache_Controller.MT_MB.L1_GETS |           5    100.00%    100.00% |           0      0.00%    100.00% |           0      0.00%    100.00% |           0      0.00%    100.00% |           0      0.00%    100.00% |           0      0.00%    100.00% |           0      0.00%    100.00% |           0      0.00%    100.00% |           0      0.00%    100.00% |           0      0.00%    100.00% |           0      0.00%    100.00% |           0      0.00%    100.00% |           0      0.00%    100.00% |           0      0.00%    100.00% |           0      0.00%    100.00% |           0      0.00%    100.00% |           0      0.00%    100.00% |           0      0.00%    100.00% |           0      0.00%    100.00% |           0      0.00%    100.00% |           0      0.00%    100.00% |           0      0.00%    100.00% |           0      0.00%    100.00% |           0      0.00%    100.00% |           0      0.00%    100.00% |           0      0.00%    100.00% |           0      0.00%    100.00% |           0      0.00%    100.00% |           0      0.00%    100.00% |           0      0.00%    100.00% |           0      0.00%    100.00% |           0      0.00%    100.00%
system.ruby.L2Cache_Controller.MT_MB.L1_GETS::total            5                      
system.ruby.L2Cache_Controller.MT_MB.Exclusive_Unblock |       60419     12.23%     12.23% |       15538      3.15%     15.38% |       12747      2.58%     17.96% |       14800      3.00%     20.96% |       13333      2.70%     23.66% |       12717      2.57%     26.23% |       12240      2.48%     28.71% |       12902      2.61%     31.32% |       13097      2.65%     33.97% |       12757      2.58%     36.56% |       15511      3.14%     39.70% |       15760      3.19%     42.89% |       14128      2.86%     45.75% |       13215      2.68%     48.42% |       11998      2.43%     50.85% |       12462      2.52%     53.37% |       13975      2.83%     56.20% |       12805      2.59%     58.80% |       13227      2.68%     61.47% |       14224      2.88%     64.35% |       14903      3.02%     67.37% |       15883      3.22%     70.59% |       13721      2.78%     73.37% |       13754      2.78%     76.15% |       13836      2.80%     78.95% |       13398      2.71%     81.66% |       13250      2.68%     84.35% |       12958      2.62%     86.97% |       15562      3.15%     90.12% |       13986      2.83%     92.95% |       16358      3.31%     96.27% |       18447      3.73%    100.00%
system.ruby.L2Cache_Controller.MT_MB.Exclusive_Unblock::total       493911                      
system.ruby.L2Cache_Controller.MT_IIB.L1_PUTX |           2    100.00%    100.00% |           0      0.00%    100.00% |           0      0.00%    100.00% |           0      0.00%    100.00% |           0      0.00%    100.00% |           0      0.00%    100.00% |           0      0.00%    100.00% |           0      0.00%    100.00% |           0      0.00%    100.00% |           0      0.00%    100.00% |           0      0.00%    100.00% |           0      0.00%    100.00% |           0      0.00%    100.00% |           0      0.00%    100.00% |           0      0.00%    100.00% |           0      0.00%    100.00% |           0      0.00%    100.00% |           0      0.00%    100.00% |           0      0.00%    100.00% |           0      0.00%    100.00% |           0      0.00%    100.00% |           0      0.00%    100.00% |           0      0.00%    100.00% |           0      0.00%    100.00% |           0      0.00%    100.00% |           0      0.00%    100.00% |           0      0.00%    100.00% |           0      0.00%    100.00% |           0      0.00%    100.00% |           0      0.00%    100.00% |           0      0.00%    100.00% |           0      0.00%    100.00%
system.ruby.L2Cache_Controller.MT_IIB.L1_PUTX::total            2                      
system.ruby.L2Cache_Controller.MT_IIB.WB_Data |           0      0.00%      0.00% |           1     20.00%     20.00% |           1     20.00%     40.00% |           1     20.00%     60.00% |           0      0.00%     60.00% |           0      0.00%     60.00% |           1     20.00%     80.00% |           0      0.00%     80.00% |           0      0.00%     80.00% |           1     20.00%    100.00% |           0      0.00%    100.00% |           0      0.00%    100.00% |           0      0.00%    100.00% |           0      0.00%    100.00% |           0      0.00%    100.00% |           0      0.00%    100.00% |           0      0.00%    100.00% |           0      0.00%    100.00% |           0      0.00%    100.00% |           0      0.00%    100.00% |           0      0.00%    100.00% |           0      0.00%    100.00% |           0      0.00%    100.00% |           0      0.00%    100.00% |           0      0.00%    100.00% |           0      0.00%    100.00% |           0      0.00%    100.00% |           0      0.00%    100.00% |           0      0.00%    100.00% |           0      0.00%    100.00% |           0      0.00%    100.00% |           0      0.00%    100.00%
system.ruby.L2Cache_Controller.MT_IIB.WB_Data::total            5                      
system.ruby.L2Cache_Controller.MT_IIB.WB_Data_clean |        2936     50.53%     50.53% |           0      0.00%     50.53% |           0      0.00%     50.53% |           0      0.00%     50.53% |           0      0.00%     50.53% |           0      0.00%     50.53% |           0      0.00%     50.53% |           0      0.00%     50.53% |           0      0.00%     50.53% |           0      0.00%     50.53% |           0      0.00%     50.53% |           0      0.00%     50.53% |           0      0.00%     50.53% |           0      0.00%     50.53% |           0      0.00%     50.53% |           0      0.00%     50.53% |        2874     49.47%    100.00% |           0      0.00%    100.00% |           0      0.00%    100.00% |           0      0.00%    100.00% |           0      0.00%    100.00% |           0      0.00%    100.00% |           0      0.00%    100.00% |           0      0.00%    100.00% |           0      0.00%    100.00% |           0      0.00%    100.00% |           0      0.00%    100.00% |           0      0.00%    100.00% |           0      0.00%    100.00% |           0      0.00%    100.00% |           0      0.00%    100.00% |           0      0.00%    100.00%
system.ruby.L2Cache_Controller.MT_IIB.WB_Data_clean::total         5810                      
system.ruby.L2Cache_Controller.MT_IIB.Unblock |          88     31.77%     31.77% |           0      0.00%     31.77% |           0      0.00%     31.77% |           0      0.00%     31.77% |           0      0.00%     31.77% |           0      0.00%     31.77% |           0      0.00%     31.77% |           0      0.00%     31.77% |           0      0.00%     31.77% |           0      0.00%     31.77% |           0      0.00%     31.77% |           0      0.00%     31.77% |           0      0.00%     31.77% |           0      0.00%     31.77% |           0      0.00%     31.77% |           0      0.00%     31.77% |         189     68.23%    100.00% |           0      0.00%    100.00% |           0      0.00%    100.00% |           0      0.00%    100.00% |           0      0.00%    100.00% |           0      0.00%    100.00% |           0      0.00%    100.00% |           0      0.00%    100.00% |           0      0.00%    100.00% |           0      0.00%    100.00% |           0      0.00%    100.00% |           0      0.00%    100.00% |           0      0.00%    100.00% |           0      0.00%    100.00% |           0      0.00%    100.00% |           0      0.00%    100.00%
system.ruby.L2Cache_Controller.MT_IIB.Unblock::total          277                      
system.ruby.L2Cache_Controller.MT_IB.WB_Data_clean |          88     31.77%     31.77% |           0      0.00%     31.77% |           0      0.00%     31.77% |           0      0.00%     31.77% |           0      0.00%     31.77% |           0      0.00%     31.77% |           0      0.00%     31.77% |           0      0.00%     31.77% |           0      0.00%     31.77% |           0      0.00%     31.77% |           0      0.00%     31.77% |           0      0.00%     31.77% |           0      0.00%     31.77% |           0      0.00%     31.77% |           0      0.00%     31.77% |           0      0.00%     31.77% |         189     68.23%    100.00% |           0      0.00%    100.00% |           0      0.00%    100.00% |           0      0.00%    100.00% |           0      0.00%    100.00% |           0      0.00%    100.00% |           0      0.00%    100.00% |           0      0.00%    100.00% |           0      0.00%    100.00% |           0      0.00%    100.00% |           0      0.00%    100.00% |           0      0.00%    100.00% |           0      0.00%    100.00% |           0      0.00%    100.00% |           0      0.00%    100.00% |           0      0.00%    100.00%
system.ruby.L2Cache_Controller.MT_IB.WB_Data_clean::total          277                      
system.ruby.L2Cache_Controller.MT_SB.Unblock |        2936     50.49%     50.49% |           1      0.02%     50.51% |           1      0.02%     50.52% |           1      0.02%     50.54% |           0      0.00%     50.54% |           0      0.00%     50.54% |           1      0.02%     50.56% |           0      0.00%     50.56% |           0      0.00%     50.56% |           1      0.02%     50.58% |           0      0.00%     50.58% |           0      0.00%     50.58% |           0      0.00%     50.58% |           0      0.00%     50.58% |           0      0.00%     50.58% |           0      0.00%     50.58% |        2874     49.42%    100.00% |           0      0.00%    100.00% |           0      0.00%    100.00% |           0      0.00%    100.00% |           0      0.00%    100.00% |           0      0.00%    100.00% |           0      0.00%    100.00% |           0      0.00%    100.00% |           0      0.00%    100.00% |           0      0.00%    100.00% |           0      0.00%    100.00% |           0      0.00%    100.00% |           0      0.00%    100.00% |           0      0.00%    100.00% |           0      0.00%    100.00% |           0      0.00%    100.00%
system.ruby.L2Cache_Controller.MT_SB.Unblock::total         5815                      
system.ruby.SimicsNetworkPortInterface_Controller.MessageSend |       16641     10.35%     10.35% |       80395     50.00%     60.35% |        7665      4.77%     65.12% |        7978      4.96%     70.08% |        8358      5.20%     75.28% |        7601      4.73%     80.00% |        7826      4.87%     84.87% |        7611      4.73%     89.60% |        8394      5.22%     94.82% |        8321      5.18%    100.00% |           0      0.00%    100.00% |           0      0.00%    100.00% |           0      0.00%    100.00% |           0      0.00%    100.00% |           0      0.00%    100.00% |           0      0.00%    100.00% |           0      0.00%    100.00% |           0      0.00%    100.00% |           0      0.00%    100.00% |           0      0.00%    100.00% |           0      0.00%    100.00% |           0      0.00%    100.00% |           0      0.00%    100.00% |           0      0.00%    100.00% |           0      0.00%    100.00% |           0      0.00%    100.00% |           0      0.00%    100.00% |           0      0.00%    100.00% |           0      0.00%    100.00% |           0      0.00%    100.00% |           0      0.00%    100.00% |           0      0.00%    100.00%
system.ruby.SimicsNetworkPortInterface_Controller.MessageSend::total       160790                      
system.ruby.SimicsNetworkPortInterface_Controller.MessageRecv |       16641     10.35%     10.35% |       80395     50.00%     60.35% |        7665      4.77%     65.12% |        7978      4.96%     70.08% |        8358      5.20%     75.28% |        7601      4.73%     80.00% |        7826      4.87%     84.87% |        7611      4.73%     89.60% |        8394      5.22%     94.82% |        8321      5.18%    100.00% |           0      0.00%    100.00% |           0      0.00%    100.00% |           0      0.00%    100.00% |           0      0.00%    100.00% |           0      0.00%    100.00% |           0      0.00%    100.00% |           0      0.00%    100.00% |           0      0.00%    100.00% |           0      0.00%    100.00% |           0      0.00%    100.00% |           0      0.00%    100.00% |           0      0.00%    100.00% |           0      0.00%    100.00% |           0      0.00%    100.00% |           0      0.00%    100.00% |           0      0.00%    100.00% |           0      0.00%    100.00% |           0      0.00%    100.00% |           0      0.00%    100.00% |           0      0.00%    100.00% |           0      0.00%    100.00% |           0      0.00%    100.00%
system.ruby.SimicsNetworkPortInterface_Controller.MessageRecv::total       160790                      
system.ruby.SimicsNetworkPortInterface_Controller.A.MessageSend |       16641     10.35%     10.35% |       80395     50.00%     60.35% |        7665      4.77%     65.12% |        7978      4.96%     70.08% |        8358      5.20%     75.28% |        7601      4.73%     80.00% |        7826      4.87%     84.87% |        7611      4.73%     89.60% |        8394      5.22%     94.82% |        8321      5.18%    100.00% |           0      0.00%    100.00% |           0      0.00%    100.00% |           0      0.00%    100.00% |           0      0.00%    100.00% |           0      0.00%    100.00% |           0      0.00%    100.00% |           0      0.00%    100.00% |           0      0.00%    100.00% |           0      0.00%    100.00% |           0      0.00%    100.00% |           0      0.00%    100.00% |           0      0.00%    100.00% |           0      0.00%    100.00% |           0      0.00%    100.00% |           0      0.00%    100.00% |           0      0.00%    100.00% |           0      0.00%    100.00% |           0      0.00%    100.00% |           0      0.00%    100.00% |           0      0.00%    100.00% |           0      0.00%    100.00% |           0      0.00%    100.00%
system.ruby.SimicsNetworkPortInterface_Controller.A.MessageSend::total       160790                      
system.ruby.SimicsNetworkPortInterface_Controller.A.MessageRecv |       16641     10.35%     10.35% |       80395     50.00%     60.35% |        7665      4.77%     65.12% |        7978      4.96%     70.08% |        8358      5.20%     75.28% |        7601      4.73%     80.00% |        7826      4.87%     84.87% |        7611      4.73%     89.60% |        8394      5.22%     94.82% |        8321      5.18%    100.00% |           0      0.00%    100.00% |           0      0.00%    100.00% |           0      0.00%    100.00% |           0      0.00%    100.00% |           0      0.00%    100.00% |           0      0.00%    100.00% |           0      0.00%    100.00% |           0      0.00%    100.00% |           0      0.00%    100.00% |           0      0.00%    100.00% |           0      0.00%    100.00% |           0      0.00%    100.00% |           0      0.00%    100.00% |           0      0.00%    100.00% |           0      0.00%    100.00% |           0      0.00%    100.00% |           0      0.00%    100.00% |           0      0.00%    100.00% |           0      0.00%    100.00% |           0      0.00%    100.00% |           0      0.00%    100.00% |           0      0.00%    100.00%
system.ruby.SimicsNetworkPortInterface_Controller.A.MessageRecv::total       160790                      
system.switch_cpus.kern.inst.arm                    0                       # number of arm instructions executed
system.switch_cpus.kern.inst.quiesce                0                       # number of quiesce instructions executed

---------- End Simulation Statistics   ----------
