
---------- Begin Simulation Statistics ----------
sim_seconds                                  0.057325                       # Number of seconds simulated
sim_ticks                                 57325221500                       # Number of ticks simulated
final_tick                               5233493300000                       # Number of ticks from beginning of simulation (restored from checkpoints and never reset)
sim_freq                                 1000000000000                       # Frequency of simulated ticks
host_inst_rate                                  28805                       # Simulator instruction rate (inst/s)
host_op_rate                                    50879                       # Simulator op (including micro ops) rate (op/s)
host_tick_rate                               70628397                       # Simulator tick rate (ticks/s)
host_mem_usage                                4440796                       # Number of bytes of host memory used
host_seconds                                   811.65                       # Real time elapsed on the host
sim_insts                                    23379713                       # Number of instructions simulated
sim_ops                                      41295400                       # Number of ops (including micro ops) simulated
system.voltage_domain.voltage                       1                       # Voltage in Volts
system.clk_domain.clock                           500                       # Clock period in ticks
system.mem_ctrls0.bytes_read::ruby.dir_cntrl0     12635456                       # Number of bytes read from this memory
system.mem_ctrls0.bytes_read::total          12635456                       # Number of bytes read from this memory
system.mem_ctrls0.bytes_written::ruby.dir_cntrl0      8054080                       # Number of bytes written to this memory
system.mem_ctrls0.bytes_written::total        8054080                       # Number of bytes written to this memory
system.mem_ctrls0.num_reads::ruby.dir_cntrl0       197429                       # Number of read requests responded to by this memory
system.mem_ctrls0.num_reads::total             197429                       # Number of read requests responded to by this memory
system.mem_ctrls0.num_writes::ruby.dir_cntrl0       125845                       # Number of write requests responded to by this memory
system.mem_ctrls0.num_writes::total            125845                       # Number of write requests responded to by this memory
system.mem_ctrls0.bw_read::ruby.dir_cntrl0    220417046                       # Total read bandwidth from this memory (bytes/s)
system.mem_ctrls0.bw_read::total            220417046                       # Total read bandwidth from this memory (bytes/s)
system.mem_ctrls0.bw_write::ruby.dir_cntrl0    140498018                       # Write bandwidth from this memory (bytes/s)
system.mem_ctrls0.bw_write::total           140498018                       # Write bandwidth from this memory (bytes/s)
system.mem_ctrls0.bw_total::ruby.dir_cntrl0    360915064                       # Total bandwidth to/from this memory (bytes/s)
system.mem_ctrls0.bw_total::total           360915064                       # Total bandwidth to/from this memory (bytes/s)
system.mem_ctrls0.readReqs                     197429                       # Number of read requests accepted
system.mem_ctrls0.writeReqs                    125845                       # Number of write requests accepted
system.mem_ctrls0.readBursts                   197429                       # Number of DRAM read bursts, including those serviced by the write queue
system.mem_ctrls0.writeBursts                  125845                       # Number of DRAM write bursts, including those merged in the write queue
system.mem_ctrls0.bytesReadDRAM              12633536                       # Total number of bytes read from DRAM
system.mem_ctrls0.bytesReadWrQ                   1920                       # Total number of bytes read from write queue
system.mem_ctrls0.bytesWritten                8053952                       # Total number of bytes written to DRAM
system.mem_ctrls0.bytesReadSys               12635456                       # Total read bytes from the system interface side
system.mem_ctrls0.bytesWrittenSys             8054080                       # Total written bytes from the system interface side
system.mem_ctrls0.servicedByWrQ                    30                       # Number of DRAM read bursts serviced by the write queue
system.mem_ctrls0.mergedWrBursts                    0                       # Number of DRAM write bursts merged with an existing one
system.mem_ctrls0.neitherReadNorWriteReqs            0                       # Number of requests that are neither read nor write
system.mem_ctrls0.perBankRdBursts::0            12091                       # Per bank write bursts
system.mem_ctrls0.perBankRdBursts::1            12187                       # Per bank write bursts
system.mem_ctrls0.perBankRdBursts::2            12069                       # Per bank write bursts
system.mem_ctrls0.perBankRdBursts::3            12465                       # Per bank write bursts
system.mem_ctrls0.perBankRdBursts::4            12211                       # Per bank write bursts
system.mem_ctrls0.perBankRdBursts::5            12289                       # Per bank write bursts
system.mem_ctrls0.perBankRdBursts::6            12504                       # Per bank write bursts
system.mem_ctrls0.perBankRdBursts::7            12670                       # Per bank write bursts
system.mem_ctrls0.perBankRdBursts::8            12424                       # Per bank write bursts
system.mem_ctrls0.perBankRdBursts::9            12796                       # Per bank write bursts
system.mem_ctrls0.perBankRdBursts::10           12433                       # Per bank write bursts
system.mem_ctrls0.perBankRdBursts::11           12736                       # Per bank write bursts
system.mem_ctrls0.perBankRdBursts::12           12260                       # Per bank write bursts
system.mem_ctrls0.perBankRdBursts::13           12051                       # Per bank write bursts
system.mem_ctrls0.perBankRdBursts::14           12282                       # Per bank write bursts
system.mem_ctrls0.perBankRdBursts::15           11931                       # Per bank write bursts
system.mem_ctrls0.perBankWrBursts::0             7803                       # Per bank write bursts
system.mem_ctrls0.perBankWrBursts::1             7674                       # Per bank write bursts
system.mem_ctrls0.perBankWrBursts::2             7830                       # Per bank write bursts
system.mem_ctrls0.perBankWrBursts::3             7850                       # Per bank write bursts
system.mem_ctrls0.perBankWrBursts::4             7806                       # Per bank write bursts
system.mem_ctrls0.perBankWrBursts::5             7896                       # Per bank write bursts
system.mem_ctrls0.perBankWrBursts::6             8002                       # Per bank write bursts
system.mem_ctrls0.perBankWrBursts::7             8044                       # Per bank write bursts
system.mem_ctrls0.perBankWrBursts::8             7939                       # Per bank write bursts
system.mem_ctrls0.perBankWrBursts::9             8083                       # Per bank write bursts
system.mem_ctrls0.perBankWrBursts::10            7892                       # Per bank write bursts
system.mem_ctrls0.perBankWrBursts::11            7931                       # Per bank write bursts
system.mem_ctrls0.perBankWrBursts::12            7762                       # Per bank write bursts
system.mem_ctrls0.perBankWrBursts::13            7815                       # Per bank write bursts
system.mem_ctrls0.perBankWrBursts::14            7890                       # Per bank write bursts
system.mem_ctrls0.perBankWrBursts::15            7626                       # Per bank write bursts
system.mem_ctrls0.numRdRetry                    10252                       # Number of times read queue was full causing retry
system.mem_ctrls0.numWrRetry                     4510                       # Number of times write queue was full causing retry
system.mem_ctrls0.totGap                  57324729500                       # Total gap between requests
system.mem_ctrls0.readPktSize::0                    0                       # Read request sizes (log2)
system.mem_ctrls0.readPktSize::1                    0                       # Read request sizes (log2)
system.mem_ctrls0.readPktSize::2                    0                       # Read request sizes (log2)
system.mem_ctrls0.readPktSize::3                    0                       # Read request sizes (log2)
system.mem_ctrls0.readPktSize::4                    0                       # Read request sizes (log2)
system.mem_ctrls0.readPktSize::5                    0                       # Read request sizes (log2)
system.mem_ctrls0.readPktSize::6               197429                       # Read request sizes (log2)
system.mem_ctrls0.writePktSize::0                   0                       # Write request sizes (log2)
system.mem_ctrls0.writePktSize::1                   0                       # Write request sizes (log2)
system.mem_ctrls0.writePktSize::2                   0                       # Write request sizes (log2)
system.mem_ctrls0.writePktSize::3                   0                       # Write request sizes (log2)
system.mem_ctrls0.writePktSize::4                   0                       # Write request sizes (log2)
system.mem_ctrls0.writePktSize::5                   0                       # Write request sizes (log2)
system.mem_ctrls0.writePktSize::6              125845                       # Write request sizes (log2)
system.mem_ctrls0.rdQLenPdf::0                  77034                       # What read queue length does an incoming req see
system.mem_ctrls0.rdQLenPdf::1                  12304                       # What read queue length does an incoming req see
system.mem_ctrls0.rdQLenPdf::2                  10681                       # What read queue length does an incoming req see
system.mem_ctrls0.rdQLenPdf::3                   9117                       # What read queue length does an incoming req see
system.mem_ctrls0.rdQLenPdf::4                   8262                       # What read queue length does an incoming req see
system.mem_ctrls0.rdQLenPdf::5                   7760                       # What read queue length does an incoming req see
system.mem_ctrls0.rdQLenPdf::6                   7163                       # What read queue length does an incoming req see
system.mem_ctrls0.rdQLenPdf::7                   6235                       # What read queue length does an incoming req see
system.mem_ctrls0.rdQLenPdf::8                   5543                       # What read queue length does an incoming req see
system.mem_ctrls0.rdQLenPdf::9                   5018                       # What read queue length does an incoming req see
system.mem_ctrls0.rdQLenPdf::10                  4347                       # What read queue length does an incoming req see
system.mem_ctrls0.rdQLenPdf::11                  3809                       # What read queue length does an incoming req see
system.mem_ctrls0.rdQLenPdf::12                  3375                       # What read queue length does an incoming req see
system.mem_ctrls0.rdQLenPdf::13                  2888                       # What read queue length does an incoming req see
system.mem_ctrls0.rdQLenPdf::14                  2675                       # What read queue length does an incoming req see
system.mem_ctrls0.rdQLenPdf::15                  2363                       # What read queue length does an incoming req see
system.mem_ctrls0.rdQLenPdf::16                  2147                       # What read queue length does an incoming req see
system.mem_ctrls0.rdQLenPdf::17                  2029                       # What read queue length does an incoming req see
system.mem_ctrls0.rdQLenPdf::18                  1752                       # What read queue length does an incoming req see
system.mem_ctrls0.rdQLenPdf::19                  1585                       # What read queue length does an incoming req see
system.mem_ctrls0.rdQLenPdf::20                  1415                       # What read queue length does an incoming req see
system.mem_ctrls0.rdQLenPdf::21                  1271                       # What read queue length does an incoming req see
system.mem_ctrls0.rdQLenPdf::22                  1110                       # What read queue length does an incoming req see
system.mem_ctrls0.rdQLenPdf::23                  1021                       # What read queue length does an incoming req see
system.mem_ctrls0.rdQLenPdf::24                   937                       # What read queue length does an incoming req see
system.mem_ctrls0.rdQLenPdf::25                   872                       # What read queue length does an incoming req see
system.mem_ctrls0.rdQLenPdf::26                   771                       # What read queue length does an incoming req see
system.mem_ctrls0.rdQLenPdf::27                   716                       # What read queue length does an incoming req see
system.mem_ctrls0.rdQLenPdf::28                   681                       # What read queue length does an incoming req see
system.mem_ctrls0.rdQLenPdf::29                   647                       # What read queue length does an incoming req see
system.mem_ctrls0.rdQLenPdf::30                   691                       # What read queue length does an incoming req see
system.mem_ctrls0.rdQLenPdf::31                 11180                       # What read queue length does an incoming req see
system.mem_ctrls0.wrQLenPdf::0                  18661                       # What write queue length does an incoming req see
system.mem_ctrls0.wrQLenPdf::1                  21113                       # What write queue length does an incoming req see
system.mem_ctrls0.wrQLenPdf::2                  21915                       # What write queue length does an incoming req see
system.mem_ctrls0.wrQLenPdf::3                  22088                       # What write queue length does an incoming req see
system.mem_ctrls0.wrQLenPdf::4                  21936                       # What write queue length does an incoming req see
system.mem_ctrls0.wrQLenPdf::5                   5936                       # What write queue length does an incoming req see
system.mem_ctrls0.wrQLenPdf::6                   5619                       # What write queue length does an incoming req see
system.mem_ctrls0.wrQLenPdf::7                   8577                       # What write queue length does an incoming req see
system.mem_ctrls0.bytesPerActivate::samples        83686                       # Bytes accessed per row activation
system.mem_ctrls0.bytesPerActivate::mean   247.192983                       # Bytes accessed per row activation
system.mem_ctrls0.bytesPerActivate::gmean   174.833065                       # Bytes accessed per row activation
system.mem_ctrls0.bytesPerActivate::stdev   224.262277                       # Bytes accessed per row activation
system.mem_ctrls0.bytesPerActivate::0-127        25750     30.77%     30.77% # Bytes accessed per row activation
system.mem_ctrls0.bytesPerActivate::128-255        22227     26.56%     57.33% # Bytes accessed per row activation
system.mem_ctrls0.bytesPerActivate::256-383        21298     25.45%     82.78% # Bytes accessed per row activation
system.mem_ctrls0.bytesPerActivate::384-511         4577      5.47%     88.25% # Bytes accessed per row activation
system.mem_ctrls0.bytesPerActivate::512-639         3543      4.23%     92.48% # Bytes accessed per row activation
system.mem_ctrls0.bytesPerActivate::640-767         1629      1.95%     94.43% # Bytes accessed per row activation
system.mem_ctrls0.bytesPerActivate::768-895         1113      1.33%     95.76% # Bytes accessed per row activation
system.mem_ctrls0.bytesPerActivate::896-1023          829      0.99%     96.75% # Bytes accessed per row activation
system.mem_ctrls0.bytesPerActivate::1024-1151         2720      3.25%    100.00% # Bytes accessed per row activation
system.mem_ctrls0.bytesPerActivate::total        83686                       # Bytes accessed per row activation
system.mem_ctrls0.rdPerTurnAround::samples        19305                       # Reads before turning the bus around for writes
system.mem_ctrls0.rdPerTurnAround::mean     10.224864                       # Reads before turning the bus around for writes
system.mem_ctrls0.rdPerTurnAround::stdev    30.464455                       # Reads before turning the bus around for writes
system.mem_ctrls0.rdPerTurnAround::0-127        19295     99.95%     99.95% # Reads before turning the bus around for writes
system.mem_ctrls0.rdPerTurnAround::128-255            9      0.05%     99.99% # Reads before turning the bus around for writes
system.mem_ctrls0.rdPerTurnAround::3968-4095            1      0.01%    100.00% # Reads before turning the bus around for writes
system.mem_ctrls0.rdPerTurnAround::total        19305                       # Reads before turning the bus around for writes
system.mem_ctrls0.wrPerTurnAround::samples        19305                       # Writes before turning the bus around for reads
system.mem_ctrls0.wrPerTurnAround::mean      6.518674                       # Writes before turning the bus around for reads
system.mem_ctrls0.wrPerTurnAround::gmean     6.055021                       # Writes before turning the bus around for reads
system.mem_ctrls0.wrPerTurnAround::stdev     3.029568                       # Writes before turning the bus around for reads
system.mem_ctrls0.wrPerTurnAround::4-7          15403     79.79%     79.79% # Writes before turning the bus around for reads
system.mem_ctrls0.wrPerTurnAround::8-11          2000     10.36%     90.15% # Writes before turning the bus around for reads
system.mem_ctrls0.wrPerTurnAround::12-15         1023      5.30%     95.45% # Writes before turning the bus around for reads
system.mem_ctrls0.wrPerTurnAround::16-19          879      4.55%    100.00% # Writes before turning the bus around for reads
system.mem_ctrls0.wrPerTurnAround::total        19305                       # Writes before turning the bus around for reads
system.mem_ctrls0.totQLat                 16052328755                       # Total ticks spent queuing
system.mem_ctrls0.totMemAccLat            19753560005                       # Total ticks spent from burst creation until serviced by the DRAM
system.mem_ctrls0.totBusLat                 986995000                       # Total ticks spent in databus transfers
system.mem_ctrls0.avgQLat                    81319.20                       # Average queueing delay per DRAM burst
system.mem_ctrls0.avgBusLat                   5000.00                       # Average bus latency per DRAM burst
system.mem_ctrls0.avgMemAccLat              100069.20                       # Average memory access latency per DRAM burst
system.mem_ctrls0.avgRdBW                      220.38                       # Average DRAM read bandwidth in MiByte/s
system.mem_ctrls0.avgWrBW                      140.50                       # Average achieved write bandwidth in MiByte/s
system.mem_ctrls0.avgRdBWSys                   220.42                       # Average system read bandwidth in MiByte/s
system.mem_ctrls0.avgWrBWSys                   140.50                       # Average system write bandwidth in MiByte/s
system.mem_ctrls0.peakBW                     12800.00                       # Theoretical peak bandwidth in MiByte/s
system.mem_ctrls0.busUtil                        2.82                       # Data bus utilization in percentage
system.mem_ctrls0.busUtilRead                    1.72                       # Data bus utilization in percentage for reads
system.mem_ctrls0.busUtilWrite                   1.10                       # Data bus utilization in percentage for writes
system.mem_ctrls0.avgRdQLen                      1.32                       # Average read queue length when enqueuing
system.mem_ctrls0.avgWrQLen                      2.91                       # Average write queue length when enqueuing
system.mem_ctrls0.readRowHits                  153963                       # Number of row buffer hits during reads
system.mem_ctrls0.writeRowHits                  85583                       # Number of row buffer hits during writes
system.mem_ctrls0.readRowHitRate                78.00                       # Row buffer hit rate for reads
system.mem_ctrls0.writeRowHitRate               68.01                       # Row buffer hit rate for writes
system.mem_ctrls0.avgGap                    177325.52                       # Average gap between requests
system.mem_ctrls0.pageHitRate                   74.11                       # Row buffer hit rate, read and write combined
system.mem_ctrls0.memoryStateTime::IDLE   11627423500                       # Time in different power states
system.mem_ctrls0.memoryStateTime::REF     1914120000                       # Time in different power states
system.mem_ctrls0.memoryStateTime::PRE_PDN            0                       # Time in different power states
system.mem_ctrls0.memoryStateTime::ACT    43781200500                       # Time in different power states
system.mem_ctrls0.memoryStateTime::ACT_PDN            0                       # Time in different power states
system.mem_ctrls0.actEnergy::0              319485600                       # Energy for activate commands per rank (pJ)
system.mem_ctrls0.actEnergy::1              313157880                       # Energy for activate commands per rank (pJ)
system.mem_ctrls0.preEnergy::0              174322500                       # Energy for precharge commands per rank (pJ)
system.mem_ctrls0.preEnergy::1              170869875                       # Energy for precharge commands per rank (pJ)
system.mem_ctrls0.readEnergy::0             768159600                       # Energy for read commands per rank (pJ)
system.mem_ctrls0.readEnergy::1             771459000                       # Energy for read commands per rank (pJ)
system.mem_ctrls0.writeEnergy::0            407598480                       # Energy for write commands per rank (pJ)
system.mem_ctrls0.writeEnergy::1            407831760                       # Energy for write commands per rank (pJ)
system.mem_ctrls0.refreshEnergy::0         3744018720                       # Energy for refresh commands per rank (pJ)
system.mem_ctrls0.refreshEnergy::1         3744018720                       # Energy for refresh commands per rank (pJ)
system.mem_ctrls0.actBackEnergy::0        22712037030                       # Energy for active background per rank (pJ)
system.mem_ctrls0.actBackEnergy::1        22191058170                       # Energy for active background per rank (pJ)
system.mem_ctrls0.preBackEnergy::0        14470741500                       # Energy for precharge background per rank (pJ)
system.mem_ctrls0.preBackEnergy::1        14927740500                       # Energy for precharge background per rank (pJ)
system.mem_ctrls0.totalEnergy::0          42596363430                       # Total energy per rank (pJ)
system.mem_ctrls0.totalEnergy::1          42526135905                       # Total energy per rank (pJ)
system.mem_ctrls0.averagePower::0          743.098489                       # Core power per rank (mW)
system.mem_ctrls0.averagePower::1          741.873361                       # Core power per rank (mW)
system.mem_ctrls1.bytes_read::ruby.dir_cntrl1     12407104                       # Number of bytes read from this memory
system.mem_ctrls1.bytes_read::total          12407104                       # Number of bytes read from this memory
system.mem_ctrls1.bytes_written::ruby.dir_cntrl1      7836672                       # Number of bytes written to this memory
system.mem_ctrls1.bytes_written::total        7836672                       # Number of bytes written to this memory
system.mem_ctrls1.num_reads::ruby.dir_cntrl1       193861                       # Number of read requests responded to by this memory
system.mem_ctrls1.num_reads::total             193861                       # Number of read requests responded to by this memory
system.mem_ctrls1.num_writes::ruby.dir_cntrl1       122448                       # Number of write requests responded to by this memory
system.mem_ctrls1.num_writes::total            122448                       # Number of write requests responded to by this memory
system.mem_ctrls1.bw_read::ruby.dir_cntrl1    216433599                       # Total read bandwidth from this memory (bytes/s)
system.mem_ctrls1.bw_read::total            216433599                       # Total read bandwidth from this memory (bytes/s)
system.mem_ctrls1.bw_write::ruby.dir_cntrl1    136705481                       # Write bandwidth from this memory (bytes/s)
system.mem_ctrls1.bw_write::total           136705481                       # Write bandwidth from this memory (bytes/s)
system.mem_ctrls1.bw_total::ruby.dir_cntrl1    353139080                       # Total bandwidth to/from this memory (bytes/s)
system.mem_ctrls1.bw_total::total           353139080                       # Total bandwidth to/from this memory (bytes/s)
system.mem_ctrls1.readReqs                     193861                       # Number of read requests accepted
system.mem_ctrls1.writeReqs                    122448                       # Number of write requests accepted
system.mem_ctrls1.readBursts                   193861                       # Number of DRAM read bursts, including those serviced by the write queue
system.mem_ctrls1.writeBursts                  122448                       # Number of DRAM write bursts, including those merged in the write queue
system.mem_ctrls1.bytesReadDRAM              12404800                       # Total number of bytes read from DRAM
system.mem_ctrls1.bytesReadWrQ                   2304                       # Total number of bytes read from write queue
system.mem_ctrls1.bytesWritten                7836672                       # Total number of bytes written to DRAM
system.mem_ctrls1.bytesReadSys               12407104                       # Total read bytes from the system interface side
system.mem_ctrls1.bytesWrittenSys             7836672                       # Total written bytes from the system interface side
system.mem_ctrls1.servicedByWrQ                    36                       # Number of DRAM read bursts serviced by the write queue
system.mem_ctrls1.mergedWrBursts                    0                       # Number of DRAM write bursts merged with an existing one
system.mem_ctrls1.neitherReadNorWriteReqs            0                       # Number of requests that are neither read nor write
system.mem_ctrls1.perBankRdBursts::0            11881                       # Per bank write bursts
system.mem_ctrls1.perBankRdBursts::1            11968                       # Per bank write bursts
system.mem_ctrls1.perBankRdBursts::2            11839                       # Per bank write bursts
system.mem_ctrls1.perBankRdBursts::3            12226                       # Per bank write bursts
system.mem_ctrls1.perBankRdBursts::4            12007                       # Per bank write bursts
system.mem_ctrls1.perBankRdBursts::5            12099                       # Per bank write bursts
system.mem_ctrls1.perBankRdBursts::6            12313                       # Per bank write bursts
system.mem_ctrls1.perBankRdBursts::7            12460                       # Per bank write bursts
system.mem_ctrls1.perBankRdBursts::8            12187                       # Per bank write bursts
system.mem_ctrls1.perBankRdBursts::9            12565                       # Per bank write bursts
system.mem_ctrls1.perBankRdBursts::10           12192                       # Per bank write bursts
system.mem_ctrls1.perBankRdBursts::11           12547                       # Per bank write bursts
system.mem_ctrls1.perBankRdBursts::12           12031                       # Per bank write bursts
system.mem_ctrls1.perBankRdBursts::13           11818                       # Per bank write bursts
system.mem_ctrls1.perBankRdBursts::14           11963                       # Per bank write bursts
system.mem_ctrls1.perBankRdBursts::15           11729                       # Per bank write bursts
system.mem_ctrls1.perBankWrBursts::0             7601                       # Per bank write bursts
system.mem_ctrls1.perBankWrBursts::1             7484                       # Per bank write bursts
system.mem_ctrls1.perBankWrBursts::2             7629                       # Per bank write bursts
system.mem_ctrls1.perBankWrBursts::3             7639                       # Per bank write bursts
system.mem_ctrls1.perBankWrBursts::4             7608                       # Per bank write bursts
system.mem_ctrls1.perBankWrBursts::5             7699                       # Per bank write bursts
system.mem_ctrls1.perBankWrBursts::6             7780                       # Per bank write bursts
system.mem_ctrls1.perBankWrBursts::7             7824                       # Per bank write bursts
system.mem_ctrls1.perBankWrBursts::8             7725                       # Per bank write bursts
system.mem_ctrls1.perBankWrBursts::9             7868                       # Per bank write bursts
system.mem_ctrls1.perBankWrBursts::10            7674                       # Per bank write bursts
system.mem_ctrls1.perBankWrBursts::11            7719                       # Per bank write bursts
system.mem_ctrls1.perBankWrBursts::12            7553                       # Per bank write bursts
system.mem_ctrls1.perBankWrBursts::13            7599                       # Per bank write bursts
system.mem_ctrls1.perBankWrBursts::14            7617                       # Per bank write bursts
system.mem_ctrls1.perBankWrBursts::15            7429                       # Per bank write bursts
system.mem_ctrls1.numRdRetry                     7843                       # Number of times read queue was full causing retry
system.mem_ctrls1.numWrRetry                     4246                       # Number of times write queue was full causing retry
system.mem_ctrls1.totGap                  57324451500                       # Total gap between requests
system.mem_ctrls1.readPktSize::0                    0                       # Read request sizes (log2)
system.mem_ctrls1.readPktSize::1                    0                       # Read request sizes (log2)
system.mem_ctrls1.readPktSize::2                    0                       # Read request sizes (log2)
system.mem_ctrls1.readPktSize::3                    0                       # Read request sizes (log2)
system.mem_ctrls1.readPktSize::4                    0                       # Read request sizes (log2)
system.mem_ctrls1.readPktSize::5                    0                       # Read request sizes (log2)
system.mem_ctrls1.readPktSize::6               193861                       # Read request sizes (log2)
system.mem_ctrls1.writePktSize::0                   0                       # Write request sizes (log2)
system.mem_ctrls1.writePktSize::1                   0                       # Write request sizes (log2)
system.mem_ctrls1.writePktSize::2                   0                       # Write request sizes (log2)
system.mem_ctrls1.writePktSize::3                   0                       # Write request sizes (log2)
system.mem_ctrls1.writePktSize::4                   0                       # Write request sizes (log2)
system.mem_ctrls1.writePktSize::5                   0                       # Write request sizes (log2)
system.mem_ctrls1.writePktSize::6              122448                       # Write request sizes (log2)
system.mem_ctrls1.rdQLenPdf::0                  75841                       # What read queue length does an incoming req see
system.mem_ctrls1.rdQLenPdf::1                  11135                       # What read queue length does an incoming req see
system.mem_ctrls1.rdQLenPdf::2                  10486                       # What read queue length does an incoming req see
system.mem_ctrls1.rdQLenPdf::3                   9385                       # What read queue length does an incoming req see
system.mem_ctrls1.rdQLenPdf::4                   8738                       # What read queue length does an incoming req see
system.mem_ctrls1.rdQLenPdf::5                   7738                       # What read queue length does an incoming req see
system.mem_ctrls1.rdQLenPdf::6                   7072                       # What read queue length does an incoming req see
system.mem_ctrls1.rdQLenPdf::7                   6205                       # What read queue length does an incoming req see
system.mem_ctrls1.rdQLenPdf::8                   5509                       # What read queue length does an incoming req see
system.mem_ctrls1.rdQLenPdf::9                   4886                       # What read queue length does an incoming req see
system.mem_ctrls1.rdQLenPdf::10                  4459                       # What read queue length does an incoming req see
system.mem_ctrls1.rdQLenPdf::11                  4033                       # What read queue length does an incoming req see
system.mem_ctrls1.rdQLenPdf::12                  3554                       # What read queue length does an incoming req see
system.mem_ctrls1.rdQLenPdf::13                  3026                       # What read queue length does an incoming req see
system.mem_ctrls1.rdQLenPdf::14                  2789                       # What read queue length does an incoming req see
system.mem_ctrls1.rdQLenPdf::15                  2516                       # What read queue length does an incoming req see
system.mem_ctrls1.rdQLenPdf::16                  2161                       # What read queue length does an incoming req see
system.mem_ctrls1.rdQLenPdf::17                  1972                       # What read queue length does an incoming req see
system.mem_ctrls1.rdQLenPdf::18                  1786                       # What read queue length does an incoming req see
system.mem_ctrls1.rdQLenPdf::19                  1534                       # What read queue length does an incoming req see
system.mem_ctrls1.rdQLenPdf::20                  1406                       # What read queue length does an incoming req see
system.mem_ctrls1.rdQLenPdf::21                  1283                       # What read queue length does an incoming req see
system.mem_ctrls1.rdQLenPdf::22                  1147                       # What read queue length does an incoming req see
system.mem_ctrls1.rdQLenPdf::23                  1063                       # What read queue length does an incoming req see
system.mem_ctrls1.rdQLenPdf::24                   928                       # What read queue length does an incoming req see
system.mem_ctrls1.rdQLenPdf::25                   862                       # What read queue length does an incoming req see
system.mem_ctrls1.rdQLenPdf::26                   767                       # What read queue length does an incoming req see
system.mem_ctrls1.rdQLenPdf::27                   769                       # What read queue length does an incoming req see
system.mem_ctrls1.rdQLenPdf::28                   686                       # What read queue length does an incoming req see
system.mem_ctrls1.rdQLenPdf::29                   666                       # What read queue length does an incoming req see
system.mem_ctrls1.rdQLenPdf::30                   683                       # What read queue length does an incoming req see
system.mem_ctrls1.rdQLenPdf::31                  8740                       # What read queue length does an incoming req see
system.mem_ctrls1.wrQLenPdf::0                  18149                       # What write queue length does an incoming req see
system.mem_ctrls1.wrQLenPdf::1                  20543                       # What write queue length does an incoming req see
system.mem_ctrls1.wrQLenPdf::2                  21349                       # What write queue length does an incoming req see
system.mem_ctrls1.wrQLenPdf::3                  21549                       # What write queue length does an incoming req see
system.mem_ctrls1.wrQLenPdf::4                  21488                       # What write queue length does an incoming req see
system.mem_ctrls1.wrQLenPdf::5                   5726                       # What write queue length does an incoming req see
system.mem_ctrls1.wrQLenPdf::6                   5520                       # What write queue length does an incoming req see
system.mem_ctrls1.wrQLenPdf::7                   8124                       # What write queue length does an incoming req see
system.mem_ctrls1.bytesPerActivate::samples        76727                       # Bytes accessed per row activation
system.mem_ctrls1.bytesPerActivate::mean   263.801582                       # Bytes accessed per row activation
system.mem_ctrls1.bytesPerActivate::gmean   189.818515                       # Bytes accessed per row activation
system.mem_ctrls1.bytesPerActivate::stdev   229.628047                       # Bytes accessed per row activation
system.mem_ctrls1.bytesPerActivate::0-127        19813     25.82%     25.82% # Bytes accessed per row activation
system.mem_ctrls1.bytesPerActivate::128-255        21142     27.55%     53.38% # Bytes accessed per row activation
system.mem_ctrls1.bytesPerActivate::256-383        21363     27.84%     81.22% # Bytes accessed per row activation
system.mem_ctrls1.bytesPerActivate::384-511         4376      5.70%     86.92% # Bytes accessed per row activation
system.mem_ctrls1.bytesPerActivate::512-639         3677      4.79%     91.72% # Bytes accessed per row activation
system.mem_ctrls1.bytesPerActivate::640-767         1572      2.05%     93.76% # Bytes accessed per row activation
system.mem_ctrls1.bytesPerActivate::768-895         1117      1.46%     95.22% # Bytes accessed per row activation
system.mem_ctrls1.bytesPerActivate::896-1023          816      1.06%     96.28% # Bytes accessed per row activation
system.mem_ctrls1.bytesPerActivate::1024-1151         2851      3.72%    100.00% # Bytes accessed per row activation
system.mem_ctrls1.bytesPerActivate::total        76727                       # Bytes accessed per row activation
system.mem_ctrls1.rdPerTurnAround::samples        18798                       # Reads before turning the bus around for writes
system.mem_ctrls1.rdPerTurnAround::mean     10.310884                       # Reads before turning the bus around for writes
system.mem_ctrls1.rdPerTurnAround::stdev    25.022566                       # Reads before turning the bus around for writes
system.mem_ctrls1.rdPerTurnAround::0-127        18792     99.97%     99.97% # Reads before turning the bus around for writes
system.mem_ctrls1.rdPerTurnAround::128-255            4      0.02%     99.99% # Reads before turning the bus around for writes
system.mem_ctrls1.rdPerTurnAround::1152-1279            1      0.01%     99.99% # Reads before turning the bus around for writes
system.mem_ctrls1.rdPerTurnAround::2816-2943            1      0.01%    100.00% # Reads before turning the bus around for writes
system.mem_ctrls1.rdPerTurnAround::total        18798                       # Reads before turning the bus around for writes
system.mem_ctrls1.wrPerTurnAround::samples        18798                       # Writes before turning the bus around for reads
system.mem_ctrls1.wrPerTurnAround::mean      6.513884                       # Writes before turning the bus around for reads
system.mem_ctrls1.wrPerTurnAround::gmean     6.054590                       # Writes before turning the bus around for reads
system.mem_ctrls1.wrPerTurnAround::stdev     3.005004                       # Writes before turning the bus around for reads
system.mem_ctrls1.wrPerTurnAround::4-7          14870     79.10%     79.10% # Writes before turning the bus around for reads
system.mem_ctrls1.wrPerTurnAround::8-11          2158     11.48%     90.58% # Writes before turning the bus around for reads
system.mem_ctrls1.wrPerTurnAround::12-15          925      4.92%     95.50% # Writes before turning the bus around for reads
system.mem_ctrls1.wrPerTurnAround::16-19          845      4.50%    100.00% # Writes before turning the bus around for reads
system.mem_ctrls1.wrPerTurnAround::total        18798                       # Writes before turning the bus around for reads
system.mem_ctrls1.totQLat                 14989661459                       # Total ticks spent queuing
system.mem_ctrls1.totMemAccLat            18623880209                       # Total ticks spent from burst creation until serviced by the DRAM
system.mem_ctrls1.totBusLat                 969125000                       # Total ticks spent in databus transfers
system.mem_ctrls1.avgQLat                    77336.06                       # Average queueing delay per DRAM burst
system.mem_ctrls1.avgBusLat                   5000.00                       # Average bus latency per DRAM burst
system.mem_ctrls1.avgMemAccLat               96086.06                       # Average memory access latency per DRAM burst
system.mem_ctrls1.avgRdBW                      216.39                       # Average DRAM read bandwidth in MiByte/s
system.mem_ctrls1.avgWrBW                      136.71                       # Average achieved write bandwidth in MiByte/s
system.mem_ctrls1.avgRdBWSys                   216.43                       # Average system read bandwidth in MiByte/s
system.mem_ctrls1.avgWrBWSys                   136.71                       # Average system write bandwidth in MiByte/s
system.mem_ctrls1.peakBW                     12800.00                       # Theoretical peak bandwidth in MiByte/s
system.mem_ctrls1.busUtil                        2.76                       # Data bus utilization in percentage
system.mem_ctrls1.busUtilRead                    1.69                       # Data bus utilization in percentage for reads
system.mem_ctrls1.busUtilWrite                   1.07                       # Data bus utilization in percentage for writes
system.mem_ctrls1.avgRdQLen                      1.30                       # Average read queue length when enqueuing
system.mem_ctrls1.avgWrQLen                      2.96                       # Average write queue length when enqueuing
system.mem_ctrls1.readRowHits                  152629                       # Number of row buffer hits during reads
system.mem_ctrls1.writeRowHits                  86909                       # Number of row buffer hits during writes
system.mem_ctrls1.readRowHitRate                78.75                       # Row buffer hit rate for reads
system.mem_ctrls1.writeRowHitRate               70.98                       # Row buffer hit rate for writes
system.mem_ctrls1.avgGap                    181229.28                       # Average gap between requests
system.mem_ctrls1.pageHitRate                   75.74                       # Row buffer hit rate, read and write combined
system.mem_ctrls1.memoryStateTime::IDLE   11892578250                       # Time in different power states
system.mem_ctrls1.memoryStateTime::REF     1914120000                       # Time in different power states
system.mem_ctrls1.memoryStateTime::PRE_PDN            0                       # Time in different power states
system.mem_ctrls1.memoryStateTime::ACT    43515948000                       # Time in different power states
system.mem_ctrls1.memoryStateTime::ACT_PDN            0                       # Time in different power states
system.mem_ctrls1.actEnergy::0              293350680                       # Energy for activate commands per rank (pJ)
system.mem_ctrls1.actEnergy::1              286652520                       # Energy for activate commands per rank (pJ)
system.mem_ctrls1.preEnergy::0              160062375                       # Energy for precharge commands per rank (pJ)
system.mem_ctrls1.preEnergy::1              156407625                       # Energy for precharge commands per rank (pJ)
system.mem_ctrls1.readEnergy::0             754946400                       # Energy for read commands per rank (pJ)
system.mem_ctrls1.readEnergy::1             756779400                       # Energy for read commands per rank (pJ)
system.mem_ctrls1.writeEnergy::0            396932400                       # Energy for write commands per rank (pJ)
system.mem_ctrls1.writeEnergy::1            396465840                       # Energy for write commands per rank (pJ)
system.mem_ctrls1.refreshEnergy::0         3744018720                       # Energy for refresh commands per rank (pJ)
system.mem_ctrls1.refreshEnergy::1         3744018720                       # Energy for refresh commands per rank (pJ)
system.mem_ctrls1.actBackEnergy::0        22487642280                       # Energy for active background per rank (pJ)
system.mem_ctrls1.actBackEnergy::1        21930726915                       # Energy for active background per rank (pJ)
system.mem_ctrls1.preBackEnergy::0        14667577500                       # Energy for precharge background per rank (pJ)
system.mem_ctrls1.preBackEnergy::1        15156099750                       # Energy for precharge background per rank (pJ)
system.mem_ctrls1.totalEnergy::0          42504530355                       # Total energy per rank (pJ)
system.mem_ctrls1.totalEnergy::1          42427150770                       # Total energy per rank (pJ)
system.mem_ctrls1.averagePower::0          741.496482                       # Core power per rank (mW)
system.mem_ctrls1.averagePower::1          740.146586                       # Core power per rank (mW)
system.mem_ctrls2.bytes_read::ruby.dir_cntrl2     12406912                       # Number of bytes read from this memory
system.mem_ctrls2.bytes_read::total          12406912                       # Number of bytes read from this memory
system.mem_ctrls2.bytes_written::ruby.dir_cntrl2      7836864                       # Number of bytes written to this memory
system.mem_ctrls2.bytes_written::total        7836864                       # Number of bytes written to this memory
system.mem_ctrls2.num_reads::ruby.dir_cntrl2       193858                       # Number of read requests responded to by this memory
system.mem_ctrls2.num_reads::total             193858                       # Number of read requests responded to by this memory
system.mem_ctrls2.num_writes::ruby.dir_cntrl2       122451                       # Number of write requests responded to by this memory
system.mem_ctrls2.num_writes::total            122451                       # Number of write requests responded to by this memory
system.mem_ctrls2.bw_read::ruby.dir_cntrl2    216430250                       # Total read bandwidth from this memory (bytes/s)
system.mem_ctrls2.bw_read::total            216430250                       # Total read bandwidth from this memory (bytes/s)
system.mem_ctrls2.bw_write::ruby.dir_cntrl2    136708831                       # Write bandwidth from this memory (bytes/s)
system.mem_ctrls2.bw_write::total           136708831                       # Write bandwidth from this memory (bytes/s)
system.mem_ctrls2.bw_total::ruby.dir_cntrl2    353139080                       # Total bandwidth to/from this memory (bytes/s)
system.mem_ctrls2.bw_total::total           353139080                       # Total bandwidth to/from this memory (bytes/s)
system.mem_ctrls2.readReqs                     193858                       # Number of read requests accepted
system.mem_ctrls2.writeReqs                    122451                       # Number of write requests accepted
system.mem_ctrls2.readBursts                   193858                       # Number of DRAM read bursts, including those serviced by the write queue
system.mem_ctrls2.writeBursts                  122451                       # Number of DRAM write bursts, including those merged in the write queue
system.mem_ctrls2.bytesReadDRAM              12405248                       # Total number of bytes read from DRAM
system.mem_ctrls2.bytesReadWrQ                   1664                       # Total number of bytes read from write queue
system.mem_ctrls2.bytesWritten                7836736                       # Total number of bytes written to DRAM
system.mem_ctrls2.bytesReadSys               12406912                       # Total read bytes from the system interface side
system.mem_ctrls2.bytesWrittenSys             7836864                       # Total written bytes from the system interface side
system.mem_ctrls2.servicedByWrQ                    26                       # Number of DRAM read bursts serviced by the write queue
system.mem_ctrls2.mergedWrBursts                    0                       # Number of DRAM write bursts merged with an existing one
system.mem_ctrls2.neitherReadNorWriteReqs            0                       # Number of requests that are neither read nor write
system.mem_ctrls2.perBankRdBursts::0            11874                       # Per bank write bursts
system.mem_ctrls2.perBankRdBursts::1            11992                       # Per bank write bursts
system.mem_ctrls2.perBankRdBursts::2            11863                       # Per bank write bursts
system.mem_ctrls2.perBankRdBursts::3            12270                       # Per bank write bursts
system.mem_ctrls2.perBankRdBursts::4            12013                       # Per bank write bursts
system.mem_ctrls2.perBankRdBursts::5            12075                       # Per bank write bursts
system.mem_ctrls2.perBankRdBursts::6            12286                       # Per bank write bursts
system.mem_ctrls2.perBankRdBursts::7            12458                       # Per bank write bursts
system.mem_ctrls2.perBankRdBursts::8            12174                       # Per bank write bursts
system.mem_ctrls2.perBankRdBursts::9            12546                       # Per bank write bursts
system.mem_ctrls2.perBankRdBursts::10           12205                       # Per bank write bursts
system.mem_ctrls2.perBankRdBursts::11           12587                       # Per bank write bursts
system.mem_ctrls2.perBankRdBursts::12           12027                       # Per bank write bursts
system.mem_ctrls2.perBankRdBursts::13           11781                       # Per bank write bursts
system.mem_ctrls2.perBankRdBursts::14           11952                       # Per bank write bursts
system.mem_ctrls2.perBankRdBursts::15           11729                       # Per bank write bursts
system.mem_ctrls2.perBankWrBursts::0             7593                       # Per bank write bursts
system.mem_ctrls2.perBankWrBursts::1             7481                       # Per bank write bursts
system.mem_ctrls2.perBankWrBursts::2             7627                       # Per bank write bursts
system.mem_ctrls2.perBankWrBursts::3             7648                       # Per bank write bursts
system.mem_ctrls2.perBankWrBursts::4             7604                       # Per bank write bursts
system.mem_ctrls2.perBankWrBursts::5             7683                       # Per bank write bursts
system.mem_ctrls2.perBankWrBursts::6             7773                       # Per bank write bursts
system.mem_ctrls2.perBankWrBursts::7             7834                       # Per bank write bursts
system.mem_ctrls2.perBankWrBursts::8             7728                       # Per bank write bursts
system.mem_ctrls2.perBankWrBursts::9             7869                       # Per bank write bursts
system.mem_ctrls2.perBankWrBursts::10            7674                       # Per bank write bursts
system.mem_ctrls2.perBankWrBursts::11            7730                       # Per bank write bursts
system.mem_ctrls2.perBankWrBursts::12            7561                       # Per bank write bursts
system.mem_ctrls2.perBankWrBursts::13            7589                       # Per bank write bursts
system.mem_ctrls2.perBankWrBursts::14            7623                       # Per bank write bursts
system.mem_ctrls2.perBankWrBursts::15            7432                       # Per bank write bursts
system.mem_ctrls2.numRdRetry                     8310                       # Number of times read queue was full causing retry
system.mem_ctrls2.numWrRetry                     4069                       # Number of times write queue was full causing retry
system.mem_ctrls2.totGap                  57325083500                       # Total gap between requests
system.mem_ctrls2.readPktSize::0                    0                       # Read request sizes (log2)
system.mem_ctrls2.readPktSize::1                    0                       # Read request sizes (log2)
system.mem_ctrls2.readPktSize::2                    0                       # Read request sizes (log2)
system.mem_ctrls2.readPktSize::3                    0                       # Read request sizes (log2)
system.mem_ctrls2.readPktSize::4                    0                       # Read request sizes (log2)
system.mem_ctrls2.readPktSize::5                    0                       # Read request sizes (log2)
system.mem_ctrls2.readPktSize::6               193858                       # Read request sizes (log2)
system.mem_ctrls2.writePktSize::0                   0                       # Write request sizes (log2)
system.mem_ctrls2.writePktSize::1                   0                       # Write request sizes (log2)
system.mem_ctrls2.writePktSize::2                   0                       # Write request sizes (log2)
system.mem_ctrls2.writePktSize::3                   0                       # Write request sizes (log2)
system.mem_ctrls2.writePktSize::4                   0                       # Write request sizes (log2)
system.mem_ctrls2.writePktSize::5                   0                       # Write request sizes (log2)
system.mem_ctrls2.writePktSize::6              122451                       # Write request sizes (log2)
system.mem_ctrls2.rdQLenPdf::0                  75841                       # What read queue length does an incoming req see
system.mem_ctrls2.rdQLenPdf::1                  10965                       # What read queue length does an incoming req see
system.mem_ctrls2.rdQLenPdf::2                  10147                       # What read queue length does an incoming req see
system.mem_ctrls2.rdQLenPdf::3                   9345                       # What read queue length does an incoming req see
system.mem_ctrls2.rdQLenPdf::4                   8732                       # What read queue length does an incoming req see
system.mem_ctrls2.rdQLenPdf::5                   7952                       # What read queue length does an incoming req see
system.mem_ctrls2.rdQLenPdf::6                   7255                       # What read queue length does an incoming req see
system.mem_ctrls2.rdQLenPdf::7                   6362                       # What read queue length does an incoming req see
system.mem_ctrls2.rdQLenPdf::8                   5751                       # What read queue length does an incoming req see
system.mem_ctrls2.rdQLenPdf::9                   5210                       # What read queue length does an incoming req see
system.mem_ctrls2.rdQLenPdf::10                  4532                       # What read queue length does an incoming req see
system.mem_ctrls2.rdQLenPdf::11                  3988                       # What read queue length does an incoming req see
system.mem_ctrls2.rdQLenPdf::12                  3563                       # What read queue length does an incoming req see
system.mem_ctrls2.rdQLenPdf::13                  3000                       # What read queue length does an incoming req see
system.mem_ctrls2.rdQLenPdf::14                  2636                       # What read queue length does an incoming req see
system.mem_ctrls2.rdQLenPdf::15                  2364                       # What read queue length does an incoming req see
system.mem_ctrls2.rdQLenPdf::16                  2122                       # What read queue length does an incoming req see
system.mem_ctrls2.rdQLenPdf::17                  1851                       # What read queue length does an incoming req see
system.mem_ctrls2.rdQLenPdf::18                  1726                       # What read queue length does an incoming req see
system.mem_ctrls2.rdQLenPdf::19                  1512                       # What read queue length does an incoming req see
system.mem_ctrls2.rdQLenPdf::20                  1333                       # What read queue length does an incoming req see
system.mem_ctrls2.rdQLenPdf::21                  1187                       # What read queue length does an incoming req see
system.mem_ctrls2.rdQLenPdf::22                  1052                       # What read queue length does an incoming req see
system.mem_ctrls2.rdQLenPdf::23                   972                       # What read queue length does an incoming req see
system.mem_ctrls2.rdQLenPdf::24                   909                       # What read queue length does an incoming req see
system.mem_ctrls2.rdQLenPdf::25                   792                       # What read queue length does an incoming req see
system.mem_ctrls2.rdQLenPdf::26                   768                       # What read queue length does an incoming req see
system.mem_ctrls2.rdQLenPdf::27                   725                       # What read queue length does an incoming req see
system.mem_ctrls2.rdQLenPdf::28                   684                       # What read queue length does an incoming req see
system.mem_ctrls2.rdQLenPdf::29                   707                       # What read queue length does an incoming req see
system.mem_ctrls2.rdQLenPdf::30                   665                       # What read queue length does an incoming req see
system.mem_ctrls2.rdQLenPdf::31                  9184                       # What read queue length does an incoming req see
system.mem_ctrls2.wrQLenPdf::0                  18168                       # What write queue length does an incoming req see
system.mem_ctrls2.wrQLenPdf::1                  20527                       # What write queue length does an incoming req see
system.mem_ctrls2.wrQLenPdf::2                  21334                       # What write queue length does an incoming req see
system.mem_ctrls2.wrQLenPdf::3                  21546                       # What write queue length does an incoming req see
system.mem_ctrls2.wrQLenPdf::4                  21534                       # What write queue length does an incoming req see
system.mem_ctrls2.wrQLenPdf::5                   5851                       # What write queue length does an incoming req see
system.mem_ctrls2.wrQLenPdf::6                   5521                       # What write queue length does an incoming req see
system.mem_ctrls2.wrQLenPdf::7                   7970                       # What write queue length does an incoming req see
system.mem_ctrls2.bytesPerActivate::samples        76362                       # Bytes accessed per row activation
system.mem_ctrls2.bytesPerActivate::mean   265.070061                       # Bytes accessed per row activation
system.mem_ctrls2.bytesPerActivate::gmean   191.390339                       # Bytes accessed per row activation
system.mem_ctrls2.bytesPerActivate::stdev   228.921760                       # Bytes accessed per row activation
system.mem_ctrls2.bytesPerActivate::0-127        19371     25.37%     25.37% # Bytes accessed per row activation
system.mem_ctrls2.bytesPerActivate::128-255        20830     27.28%     52.65% # Bytes accessed per row activation
system.mem_ctrls2.bytesPerActivate::256-383        21781     28.52%     81.17% # Bytes accessed per row activation
system.mem_ctrls2.bytesPerActivate::384-511         4411      5.78%     86.95% # Bytes accessed per row activation
system.mem_ctrls2.bytesPerActivate::512-639         3654      4.79%     91.73% # Bytes accessed per row activation
system.mem_ctrls2.bytesPerActivate::640-767         1600      2.10%     93.83% # Bytes accessed per row activation
system.mem_ctrls2.bytesPerActivate::768-895         1084      1.42%     95.25% # Bytes accessed per row activation
system.mem_ctrls2.bytesPerActivate::896-1023          801      1.05%     96.29% # Bytes accessed per row activation
system.mem_ctrls2.bytesPerActivate::1024-1151         2830      3.71%    100.00% # Bytes accessed per row activation
system.mem_ctrls2.bytesPerActivate::total        76362                       # Bytes accessed per row activation
system.mem_ctrls2.rdPerTurnAround::samples        18771                       # Reads before turning the bus around for writes
system.mem_ctrls2.rdPerTurnAround::mean     10.325982                       # Reads before turning the bus around for writes
system.mem_ctrls2.rdPerTurnAround::stdev    25.072082                       # Reads before turning the bus around for writes
system.mem_ctrls2.rdPerTurnAround::0-127        18766     99.97%     99.97% # Reads before turning the bus around for writes
system.mem_ctrls2.rdPerTurnAround::128-255            3      0.02%     99.99% # Reads before turning the bus around for writes
system.mem_ctrls2.rdPerTurnAround::1152-1279            1      0.01%     99.99% # Reads before turning the bus around for writes
system.mem_ctrls2.rdPerTurnAround::2816-2943            1      0.01%    100.00% # Reads before turning the bus around for writes
system.mem_ctrls2.rdPerTurnAround::total        18771                       # Reads before turning the bus around for writes
system.mem_ctrls2.wrPerTurnAround::samples        18771                       # Writes before turning the bus around for reads
system.mem_ctrls2.wrPerTurnAround::mean      6.523307                       # Writes before turning the bus around for reads
system.mem_ctrls2.wrPerTurnAround::gmean     6.058338                       # Writes before turning the bus around for reads
system.mem_ctrls2.wrPerTurnAround::stdev     3.025364                       # Writes before turning the bus around for reads
system.mem_ctrls2.wrPerTurnAround::4-7          14877     79.26%     79.26% # Writes before turning the bus around for reads
system.mem_ctrls2.wrPerTurnAround::8-11          2059     10.97%     90.22% # Writes before turning the bus around for reads
system.mem_ctrls2.wrPerTurnAround::12-15          997      5.31%     95.54% # Writes before turning the bus around for reads
system.mem_ctrls2.wrPerTurnAround::16-19          838      4.46%    100.00% # Writes before turning the bus around for reads
system.mem_ctrls2.wrPerTurnAround::total        18771                       # Writes before turning the bus around for reads
system.mem_ctrls2.totQLat                 15081648176                       # Total ticks spent queuing
system.mem_ctrls2.totMemAccLat            18715998176                       # Total ticks spent from burst creation until serviced by the DRAM
system.mem_ctrls2.totBusLat                 969160000                       # Total ticks spent in databus transfers
system.mem_ctrls2.avgQLat                    77807.83                       # Average queueing delay per DRAM burst
system.mem_ctrls2.avgBusLat                   5000.00                       # Average bus latency per DRAM burst
system.mem_ctrls2.avgMemAccLat               96557.83                       # Average memory access latency per DRAM burst
system.mem_ctrls2.avgRdBW                      216.40                       # Average DRAM read bandwidth in MiByte/s
system.mem_ctrls2.avgWrBW                      136.71                       # Average achieved write bandwidth in MiByte/s
system.mem_ctrls2.avgRdBWSys                   216.43                       # Average system read bandwidth in MiByte/s
system.mem_ctrls2.avgWrBWSys                   136.71                       # Average system write bandwidth in MiByte/s
system.mem_ctrls2.peakBW                     12800.00                       # Theoretical peak bandwidth in MiByte/s
system.mem_ctrls2.busUtil                        2.76                       # Data bus utilization in percentage
system.mem_ctrls2.busUtilRead                    1.69                       # Data bus utilization in percentage for reads
system.mem_ctrls2.busUtilWrite                   1.07                       # Data bus utilization in percentage for writes
system.mem_ctrls2.avgRdQLen                      1.30                       # Average read queue length when enqueuing
system.mem_ctrls2.avgWrQLen                      2.92                       # Average write queue length when enqueuing
system.mem_ctrls2.readRowHits                  152806                       # Number of row buffer hits during reads
system.mem_ctrls2.writeRowHits                  87106                       # Number of row buffer hits during writes
system.mem_ctrls2.readRowHitRate                78.83                       # Row buffer hit rate for reads
system.mem_ctrls2.writeRowHitRate               71.14                       # Row buffer hit rate for writes
system.mem_ctrls2.avgGap                    181231.28                       # Average gap between requests
system.mem_ctrls2.pageHitRate                   75.85                       # Row buffer hit rate, read and write combined
system.mem_ctrls2.memoryStateTime::IDLE   11875723250                       # Time in different power states
system.mem_ctrls2.memoryStateTime::REF     1914120000                       # Time in different power states
system.mem_ctrls2.memoryStateTime::PRE_PDN            0                       # Time in different power states
system.mem_ctrls2.memoryStateTime::ACT    43532803000                       # Time in different power states
system.mem_ctrls2.memoryStateTime::ACT_PDN            0                       # Time in different power states
system.mem_ctrls2.actEnergy::0              290818080                       # Energy for activate commands per rank (pJ)
system.mem_ctrls2.actEnergy::1              286403040                       # Energy for activate commands per rank (pJ)
system.mem_ctrls2.preEnergy::0              158680500                       # Energy for precharge commands per rank (pJ)
system.mem_ctrls2.preEnergy::1              156271500                       # Energy for precharge commands per rank (pJ)
system.mem_ctrls2.readEnergy::0             755235000                       # Energy for read commands per rank (pJ)
system.mem_ctrls2.readEnergy::1             756537600                       # Energy for read commands per rank (pJ)
system.mem_ctrls2.writeEnergy::0            396796320                       # Energy for write commands per rank (pJ)
system.mem_ctrls2.writeEnergy::1            396608400                       # Energy for write commands per rank (pJ)
system.mem_ctrls2.refreshEnergy::0         3744018720                       # Energy for refresh commands per rank (pJ)
system.mem_ctrls2.refreshEnergy::1         3744018720                       # Energy for refresh commands per rank (pJ)
system.mem_ctrls2.actBackEnergy::0        22238596170                       # Energy for active background per rank (pJ)
system.mem_ctrls2.actBackEnergy::1        21737708955                       # Energy for active background per rank (pJ)
system.mem_ctrls2.preBackEnergy::0        14886039000                       # Energy for precharge background per rank (pJ)
system.mem_ctrls2.preBackEnergy::1        15325413750                       # Energy for precharge background per rank (pJ)
system.mem_ctrls2.totalEnergy::0          42470183790                       # Total energy per rank (pJ)
system.mem_ctrls2.totalEnergy::1          42402961965                       # Total energy per rank (pJ)
system.mem_ctrls2.averagePower::0          740.897302                       # Core power per rank (mW)
system.mem_ctrls2.averagePower::1          739.724610                       # Core power per rank (mW)
system.mem_ctrls3.bytes_read::ruby.dir_cntrl3     12386560                       # Number of bytes read from this memory
system.mem_ctrls3.bytes_read::total          12386560                       # Number of bytes read from this memory
system.mem_ctrls3.bytes_written::ruby.dir_cntrl3      7835136                       # Number of bytes written to this memory
system.mem_ctrls3.bytes_written::total        7835136                       # Number of bytes written to this memory
system.mem_ctrls3.num_reads::ruby.dir_cntrl3       193540                       # Number of read requests responded to by this memory
system.mem_ctrls3.num_reads::total             193540                       # Number of read requests responded to by this memory
system.mem_ctrls3.num_writes::ruby.dir_cntrl3       122424                       # Number of write requests responded to by this memory
system.mem_ctrls3.num_writes::total            122424                       # Number of write requests responded to by this memory
system.mem_ctrls3.bw_read::ruby.dir_cntrl3    216075223                       # Total read bandwidth from this memory (bytes/s)
system.mem_ctrls3.bw_read::total            216075223                       # Total read bandwidth from this memory (bytes/s)
system.mem_ctrls3.bw_write::ruby.dir_cntrl3    136678687                       # Write bandwidth from this memory (bytes/s)
system.mem_ctrls3.bw_write::total           136678687                       # Write bandwidth from this memory (bytes/s)
system.mem_ctrls3.bw_total::ruby.dir_cntrl3    352753910                       # Total bandwidth to/from this memory (bytes/s)
system.mem_ctrls3.bw_total::total           352753910                       # Total bandwidth to/from this memory (bytes/s)
system.mem_ctrls3.readReqs                     193540                       # Number of read requests accepted
system.mem_ctrls3.writeReqs                    122424                       # Number of write requests accepted
system.mem_ctrls3.readBursts                   193540                       # Number of DRAM read bursts, including those serviced by the write queue
system.mem_ctrls3.writeBursts                  122424                       # Number of DRAM write bursts, including those merged in the write queue
system.mem_ctrls3.bytesReadDRAM              12385216                       # Total number of bytes read from DRAM
system.mem_ctrls3.bytesReadWrQ                   1344                       # Total number of bytes read from write queue
system.mem_ctrls3.bytesWritten                7835008                       # Total number of bytes written to DRAM
system.mem_ctrls3.bytesReadSys               12386560                       # Total read bytes from the system interface side
system.mem_ctrls3.bytesWrittenSys             7835136                       # Total written bytes from the system interface side
system.mem_ctrls3.servicedByWrQ                    21                       # Number of DRAM read bursts serviced by the write queue
system.mem_ctrls3.mergedWrBursts                    0                       # Number of DRAM write bursts merged with an existing one
system.mem_ctrls3.neitherReadNorWriteReqs            0                       # Number of requests that are neither read nor write
system.mem_ctrls3.perBankRdBursts::0            11864                       # Per bank write bursts
system.mem_ctrls3.perBankRdBursts::1            11949                       # Per bank write bursts
system.mem_ctrls3.perBankRdBursts::2            11805                       # Per bank write bursts
system.mem_ctrls3.perBankRdBursts::3            12224                       # Per bank write bursts
system.mem_ctrls3.perBankRdBursts::4            11962                       # Per bank write bursts
system.mem_ctrls3.perBankRdBursts::5            12051                       # Per bank write bursts
system.mem_ctrls3.perBankRdBursts::6            12269                       # Per bank write bursts
system.mem_ctrls3.perBankRdBursts::7            12451                       # Per bank write bursts
system.mem_ctrls3.perBankRdBursts::8            12172                       # Per bank write bursts
system.mem_ctrls3.perBankRdBursts::9            12542                       # Per bank write bursts
system.mem_ctrls3.perBankRdBursts::10           12226                       # Per bank write bursts
system.mem_ctrls3.perBankRdBursts::11           12516                       # Per bank write bursts
system.mem_ctrls3.perBankRdBursts::12           12015                       # Per bank write bursts
system.mem_ctrls3.perBankRdBursts::13           11776                       # Per bank write bursts
system.mem_ctrls3.perBankRdBursts::14           11974                       # Per bank write bursts
system.mem_ctrls3.perBankRdBursts::15           11723                       # Per bank write bursts
system.mem_ctrls3.perBankWrBursts::0             7600                       # Per bank write bursts
system.mem_ctrls3.perBankWrBursts::1             7469                       # Per bank write bursts
system.mem_ctrls3.perBankWrBursts::2             7625                       # Per bank write bursts
system.mem_ctrls3.perBankWrBursts::3             7637                       # Per bank write bursts
system.mem_ctrls3.perBankWrBursts::4             7599                       # Per bank write bursts
system.mem_ctrls3.perBankWrBursts::5             7685                       # Per bank write bursts
system.mem_ctrls3.perBankWrBursts::6             7774                       # Per bank write bursts
system.mem_ctrls3.perBankWrBursts::7             7825                       # Per bank write bursts
system.mem_ctrls3.perBankWrBursts::8             7727                       # Per bank write bursts
system.mem_ctrls3.perBankWrBursts::9             7870                       # Per bank write bursts
system.mem_ctrls3.perBankWrBursts::10            7678                       # Per bank write bursts
system.mem_ctrls3.perBankWrBursts::11            7738                       # Per bank write bursts
system.mem_ctrls3.perBankWrBursts::12            7557                       # Per bank write bursts
system.mem_ctrls3.perBankWrBursts::13            7596                       # Per bank write bursts
system.mem_ctrls3.perBankWrBursts::14            7619                       # Per bank write bursts
system.mem_ctrls3.perBankWrBursts::15            7423                       # Per bank write bursts
system.mem_ctrls3.numRdRetry                     7529                       # Number of times read queue was full causing retry
system.mem_ctrls3.numWrRetry                     4192                       # Number of times write queue was full causing retry
system.mem_ctrls3.totGap                  57324180000                       # Total gap between requests
system.mem_ctrls3.readPktSize::0                    0                       # Read request sizes (log2)
system.mem_ctrls3.readPktSize::1                    0                       # Read request sizes (log2)
system.mem_ctrls3.readPktSize::2                    0                       # Read request sizes (log2)
system.mem_ctrls3.readPktSize::3                    0                       # Read request sizes (log2)
system.mem_ctrls3.readPktSize::4                    0                       # Read request sizes (log2)
system.mem_ctrls3.readPktSize::5                    0                       # Read request sizes (log2)
system.mem_ctrls3.readPktSize::6               193540                       # Read request sizes (log2)
system.mem_ctrls3.writePktSize::0                   0                       # Write request sizes (log2)
system.mem_ctrls3.writePktSize::1                   0                       # Write request sizes (log2)
system.mem_ctrls3.writePktSize::2                   0                       # Write request sizes (log2)
system.mem_ctrls3.writePktSize::3                   0                       # Write request sizes (log2)
system.mem_ctrls3.writePktSize::4                   0                       # Write request sizes (log2)
system.mem_ctrls3.writePktSize::5                   0                       # Write request sizes (log2)
system.mem_ctrls3.writePktSize::6              122424                       # Write request sizes (log2)
system.mem_ctrls3.rdQLenPdf::0                  75526                       # What read queue length does an incoming req see
system.mem_ctrls3.rdQLenPdf::1                  11103                       # What read queue length does an incoming req see
system.mem_ctrls3.rdQLenPdf::2                  10339                       # What read queue length does an incoming req see
system.mem_ctrls3.rdQLenPdf::3                   9262                       # What read queue length does an incoming req see
system.mem_ctrls3.rdQLenPdf::4                   8661                       # What read queue length does an incoming req see
system.mem_ctrls3.rdQLenPdf::5                   8137                       # What read queue length does an incoming req see
system.mem_ctrls3.rdQLenPdf::6                   7179                       # What read queue length does an incoming req see
system.mem_ctrls3.rdQLenPdf::7                   6618                       # What read queue length does an incoming req see
system.mem_ctrls3.rdQLenPdf::8                   5884                       # What read queue length does an incoming req see
system.mem_ctrls3.rdQLenPdf::9                   5168                       # What read queue length does an incoming req see
system.mem_ctrls3.rdQLenPdf::10                  4534                       # What read queue length does an incoming req see
system.mem_ctrls3.rdQLenPdf::11                  4018                       # What read queue length does an incoming req see
system.mem_ctrls3.rdQLenPdf::12                  3422                       # What read queue length does an incoming req see
system.mem_ctrls3.rdQLenPdf::13                  2992                       # What read queue length does an incoming req see
system.mem_ctrls3.rdQLenPdf::14                  2725                       # What read queue length does an incoming req see
system.mem_ctrls3.rdQLenPdf::15                  2413                       # What read queue length does an incoming req see
system.mem_ctrls3.rdQLenPdf::16                  2162                       # What read queue length does an incoming req see
system.mem_ctrls3.rdQLenPdf::17                  1840                       # What read queue length does an incoming req see
system.mem_ctrls3.rdQLenPdf::18                  1687                       # What read queue length does an incoming req see
system.mem_ctrls3.rdQLenPdf::19                  1453                       # What read queue length does an incoming req see
system.mem_ctrls3.rdQLenPdf::20                  1372                       # What read queue length does an incoming req see
system.mem_ctrls3.rdQLenPdf::21                  1220                       # What read queue length does an incoming req see
system.mem_ctrls3.rdQLenPdf::22                  1096                       # What read queue length does an incoming req see
system.mem_ctrls3.rdQLenPdf::23                   983                       # What read queue length does an incoming req see
system.mem_ctrls3.rdQLenPdf::24                   968                       # What read queue length does an incoming req see
[...]
system.ruby.L2Cache_Controller.ISS.Mem_Data::total       288442                      
system.ruby.L2Cache_Controller.IS.Mem_Data |         450      3.33%      3.33% |         423      3.13%      6.46% |         415      3.07%      9.54% |         404      2.99%     12.53% |         410      3.04%     15.56% |         401      2.97%     18.53% |         414      3.07%     21.60% |         418      3.09%     24.69% |         407      3.01%     27.71% |         417      3.09%     30.79% |         443      3.28%     34.07% |         436      3.23%     37.30% |         450      3.33%     40.63% |         428      3.17%     43.80% |         448      3.32%     47.12% |         440      3.26%     50.38% |         450      3.33%     53.71% |         440      3.26%     56.97% |         434      3.21%     60.18% |         406      3.01%     63.19% |         385      2.85%     66.04% |         408      3.02%     69.06% |         404      2.99%     72.05% |         395      2.92%     74.97% |         427      3.16%     78.14% |         447      3.31%     81.45% |         436      3.23%     84.67% |         402      2.98%     87.65% |         415      3.07%     90.72% |         426      3.15%     93.88% |         425      3.15%     97.02% |         402      2.98%    100.00%
system.ruby.L2Cache_Controller.IS.Mem_Data::total        13506                      
system.ruby.L2Cache_Controller.IM.L1_GETX |           1    100.00%    100.00% |           0      0.00%    100.00% |           0      0.00%    100.00% |           0      0.00%    100.00% |           0      0.00%    100.00% |           0      0.00%    100.00% |           0      0.00%    100.00% |           0      0.00%    100.00% |           0      0.00%    100.00% |           0      0.00%    100.00% |           0      0.00%    100.00% |           0      0.00%    100.00% |           0      0.00%    100.00% |           0      0.00%    100.00% |           0      0.00%    100.00% |           0      0.00%    100.00% |           0      0.00%    100.00% |           0      0.00%    100.00% |           0      0.00%    100.00% |           0      0.00%    100.00% |           0      0.00%    100.00% |           0      0.00%    100.00% |           0      0.00%    100.00% |           0      0.00%    100.00% |           0      0.00%    100.00% |           0      0.00%    100.00% |           0      0.00%    100.00% |           0      0.00%    100.00% |           0      0.00%    100.00% |           0      0.00%    100.00% |           0      0.00%    100.00% |           0      0.00%    100.00%
system.ruby.L2Cache_Controller.IM.L1_GETX::total            1                      
system.ruby.L2Cache_Controller.IM.Mem_Data |       14980      3.14%      3.14% |       14884      3.12%      6.26% |       14889      3.12%      9.39% |       14891      3.12%     12.51% |       14883      3.12%     15.63% |       14891      3.12%     18.76% |       14894      3.12%     21.88% |       14887      3.12%     25.00% |       14895      3.12%     28.13% |       14899      3.13%     31.25% |       14880      3.12%     34.38% |       14902      3.13%     37.50% |       14892      3.12%     40.63% |       14893      3.12%     43.75% |       14888      3.12%     46.87% |       14883      3.12%     49.99% |       14921      3.13%     53.12% |       14896      3.12%     56.25% |       14896      3.12%     59.37% |       14901      3.13%     62.50% |       14914      3.13%     65.63% |       14923      3.13%     68.76% |       14886      3.12%     71.88% |       14898      3.13%     75.01% |       14908      3.13%     78.13% |       14900      3.13%     81.26% |       14902      3.13%     84.38% |       14893      3.12%     87.51% |       14887      3.12%     90.63% |       14883      3.12%     93.75% |       14895      3.12%     96.88% |       14882      3.12%    100.00%
system.ruby.L2Cache_Controller.IM.Mem_Data::total       476716                      
system.ruby.L2Cache_Controller.SS_MB.Exclusive_Unblock |           3      6.12%      6.12% |           6     12.24%     18.37% |           2      4.08%     22.45% |           3      6.12%     28.57% |           0      0.00%     28.57% |           0      0.00%     28.57% |           0      0.00%     28.57% |           0      0.00%     28.57% |           1      2.04%     30.61% |           0      0.00%     30.61% |           0      0.00%     30.61% |           1      2.04%     32.65% |           4      8.16%     40.82% |           0      0.00%     40.82% |           2      4.08%     44.90% |           0      0.00%     44.90% |           1      2.04%     46.94% |           2      4.08%     51.02% |          13     26.53%     77.55% |           3      6.12%     83.67% |           0      0.00%     83.67% |           0      0.00%     83.67% |           0      0.00%     83.67% |           0      0.00%     83.67% |           1      2.04%     85.71% |           0      0.00%     85.71% |           3      6.12%     91.84% |           4      8.16%    100.00% |           0      0.00%    100.00% |           0      0.00%    100.00% |           0      0.00%    100.00% |           0      0.00%    100.00%
system.ruby.L2Cache_Controller.SS_MB.Exclusive_Unblock::total           49                      
system.ruby.L2Cache_Controller.MT_MB.Exclusive_Unblock |       75895      7.22%      7.22% |       32862      3.13%     10.35% |       29484      2.81%     13.15% |       32395      3.08%     16.24% |       29784      2.83%     19.07% |       29679      2.82%     21.89% |       29093      2.77%     24.66% |       29698      2.83%     27.49% |       30397      2.89%     30.38% |       29990      2.85%     33.23% |       32549      3.10%     36.33% |       30866      2.94%     39.27% |       30523      2.90%     42.17% |       30304      2.88%     45.05% |       29598      2.82%     47.87% |       30195      2.87%     50.74% |       31502      3.00%     53.74% |       30314      2.88%     56.62% |       30938      2.94%     59.57% |       31635      3.01%     62.58% |       32123      3.06%     65.63% |       37031      3.52%     69.16% |       31250      2.97%     72.13% |       31248      2.97%     75.10% |       31260      2.97%     78.08% |       31241      2.97%     81.05% |       31164      2.97%     84.02% |       30878      2.94%     86.95% |       32691      3.11%     90.06% |       32157      3.06%     93.12% |       34149      3.25%     96.37% |       38123      3.63%    100.00%
system.ruby.L2Cache_Controller.MT_MB.Exclusive_Unblock::total      1051016                      
system.ruby.L2Cache_Controller.MT_IIB.WB_Data |           1      1.25%      1.25% |           2      2.50%      3.75% |           1      1.25%      5.00% |           3      3.75%      8.75% |           3      3.75%     12.50% |           3      3.75%     16.25% |           4      5.00%     21.25% |           3      3.75%     25.00% |           5      6.25%     31.25% |           3      3.75%     35.00% |           1      1.25%     36.25% |           2      2.50%     38.75% |           3      3.75%     42.50% |           3      3.75%     46.25% |           4      5.00%     51.25% |           3      3.75%     55.00% |           3      3.75%     58.75% |           1      1.25%     60.00% |           2      2.50%     62.50% |           0      0.00%     62.50% |           1      1.25%     63.75% |           0      0.00%     63.75% |           1      1.25%     65.00% |           2      2.50%     67.50% |           3      3.75%     71.25% |           5      6.25%     77.50% |           4      5.00%     82.50% |           5      6.25%     88.75% |           3      3.75%     92.50% |           2      2.50%     95.00% |           2      2.50%     97.50% |           2      2.50%    100.00%
system.ruby.L2Cache_Controller.MT_IIB.WB_Data::total           80                      
system.ruby.L2Cache_Controller.MT_IIB.WB_Data_clean |          37     45.68%     45.68% |           0      0.00%     45.68% |           0      0.00%     45.68% |          13     16.05%     61.73% |           0      0.00%     61.73% |           0      0.00%     61.73% |           0      0.00%     61.73% |           0      0.00%     61.73% |           0      0.00%     61.73% |           0      0.00%     61.73% |           0      0.00%     61.73% |           0      0.00%     61.73% |           0      0.00%     61.73% |           0      0.00%     61.73% |           0      0.00%     61.73% |           0      0.00%     61.73% |          12     14.81%     76.54% |           0      0.00%     76.54% |           0      0.00%     76.54% |          17     20.99%     97.53% |           0      0.00%     97.53% |           0      0.00%     97.53% |           0      0.00%     97.53% |           0      0.00%     97.53% |           0      0.00%     97.53% |           0      0.00%     97.53% |           0      0.00%     97.53% |           2      2.47%    100.00% |           0      0.00%    100.00% |           0      0.00%    100.00% |           0      0.00%    100.00% |           0      0.00%    100.00%
system.ruby.L2Cache_Controller.MT_IIB.WB_Data_clean::total           81                      
system.ruby.L2Cache_Controller.MT_IIB.Unblock |           0      0.00%      0.00% |           0      0.00%      0.00% |           0      0.00%      0.00% |           2     40.00%     40.00% |           0      0.00%     40.00% |           0      0.00%     40.00% |           0      0.00%     40.00% |           0      0.00%     40.00% |           0      0.00%     40.00% |           0      0.00%     40.00% |           1     20.00%     60.00% |           0      0.00%     60.00% |           0      0.00%     60.00% |           0      0.00%     60.00% |           0      0.00%     60.00% |           0      0.00%     60.00% |           2     40.00%    100.00% |           0      0.00%    100.00% |           0      0.00%    100.00% |           0      0.00%    100.00% |           0      0.00%    100.00% |           0      0.00%    100.00% |           0      0.00%    100.00% |           0      0.00%    100.00% |           0      0.00%    100.00% |           0      0.00%    100.00% |           0      0.00%    100.00% |           0      0.00%    100.00% |           0      0.00%    100.00% |           0      0.00%    100.00% |           0      0.00%    100.00% |           0      0.00%    100.00%
system.ruby.L2Cache_Controller.MT_IIB.Unblock::total            5                      
system.ruby.L2Cache_Controller.MT_IB.WB_Data |           0      0.00%      0.00% |           0      0.00%      0.00% |           0      0.00%      0.00% |           0      0.00%      0.00% |           0      0.00%      0.00% |           0      0.00%      0.00% |           0      0.00%      0.00% |           0      0.00%      0.00% |           0      0.00%      0.00% |           0      0.00%      0.00% |           1    100.00%    100.00% |           0      0.00%    100.00% |           0      0.00%    100.00% |           0      0.00%    100.00% |           0      0.00%    100.00% |           0      0.00%    100.00% |           0      0.00%    100.00% |           0      0.00%    100.00% |           0      0.00%    100.00% |           0      0.00%    100.00% |           0      0.00%    100.00% |           0      0.00%    100.00% |           0      0.00%    100.00% |           0      0.00%    100.00% |           0      0.00%    100.00% |           0      0.00%    100.00% |           0      0.00%    100.00% |           0      0.00%    100.00% |           0      0.00%    100.00% |           0      0.00%    100.00% |           0      0.00%    100.00% |           0      0.00%    100.00%
system.ruby.L2Cache_Controller.MT_IB.WB_Data::total            1                      
system.ruby.L2Cache_Controller.MT_IB.WB_Data_clean |           0      0.00%      0.00% |           0      0.00%      0.00% |           0      0.00%      0.00% |           2     50.00%     50.00% |           0      0.00%     50.00% |           0      0.00%     50.00% |           0      0.00%     50.00% |           0      0.00%     50.00% |           0      0.00%     50.00% |           0      0.00%     50.00% |           0      0.00%     50.00% |           0      0.00%     50.00% |           0      0.00%     50.00% |           0      0.00%     50.00% |           0      0.00%     50.00% |           0      0.00%     50.00% |           2     50.00%    100.00% |           0      0.00%    100.00% |           0      0.00%    100.00% |           0      0.00%    100.00% |           0      0.00%    100.00% |           0      0.00%    100.00% |           0      0.00%    100.00% |           0      0.00%    100.00% |           0      0.00%    100.00% |           0      0.00%    100.00% |           0      0.00%    100.00% |           0      0.00%    100.00% |           0      0.00%    100.00% |           0      0.00%    100.00% |           0      0.00%    100.00% |           0      0.00%    100.00%
system.ruby.L2Cache_Controller.MT_IB.WB_Data_clean::total            4                      
system.ruby.L2Cache_Controller.MT_SB.Unblock |          38     23.60%     23.60% |           2      1.24%     24.84% |           1      0.62%     25.47% |          16      9.94%     35.40% |           3      1.86%     37.27% |           3      1.86%     39.13% |           4      2.48%     41.61% |           3      1.86%     43.48% |           5      3.11%     46.58% |           3      1.86%     48.45% |           1      0.62%     49.07% |           2      1.24%     50.31% |           3      1.86%     52.17% |           3      1.86%     54.04% |           4      2.48%     56.52% |           3      1.86%     58.39% |          15      9.32%     67.70% |           1      0.62%     68.32% |           2      1.24%     69.57% |          17     10.56%     80.12% |           1      0.62%     80.75% |           0      0.00%     80.75% |           1      0.62%     81.37% |           2      1.24%     82.61% |           3      1.86%     84.47% |           5      3.11%     87.58% |           4      2.48%     90.06% |           7      4.35%     94.41% |           3      1.86%     96.27% |           2      1.24%     97.52% |           2      1.24%     98.76% |           2      1.24%    100.00%
system.ruby.L2Cache_Controller.MT_SB.Unblock::total          161                      
system.ruby.SimicsNetworkPortInterface_Controller.MessageSend |      339394     23.72%     23.72% |      715292     50.00%     73.72% |       46496      3.25%     76.97% |       47263      3.30%     80.28% |       47446      3.32%     83.59% |       47436      3.32%     86.91% |       45875      3.21%     90.12% |       47462      3.32%     93.43% |       46719      3.27%     96.70% |       47201      3.30%    100.00% |           0      0.00%    100.00% |           0      0.00%    100.00% |           0      0.00%    100.00% |           0      0.00%    100.00% |           0      0.00%    100.00% |           0      0.00%    100.00% |           0      0.00%    100.00% |           0      0.00%    100.00% |           0      0.00%    100.00% |           0      0.00%    100.00% |           0      0.00%    100.00% |           0      0.00%    100.00% |           0      0.00%    100.00% |           0      0.00%    100.00% |           0      0.00%    100.00% |           0      0.00%    100.00% |           0      0.00%    100.00% |           0      0.00%    100.00% |           0      0.00%    100.00% |           0      0.00%    100.00% |           0      0.00%    100.00% |           0      0.00%    100.00%
system.ruby.SimicsNetworkPortInterface_Controller.MessageSend::total      1430584                      
system.ruby.SimicsNetworkPortInterface_Controller.MessageRecv |      339394     23.72%     23.72% |      715292     50.00%     73.72% |       46496      3.25%     76.97% |       47263      3.30%     80.28% |       47446      3.32%     83.59% |       47436      3.32%     86.91% |       45875      3.21%     90.12% |       47462      3.32%     93.43% |       46719      3.27%     96.70% |       47201      3.30%    100.00% |           0      0.00%    100.00% |           0      0.00%    100.00% |           0      0.00%    100.00% |           0      0.00%    100.00% |           0      0.00%    100.00% |           0      0.00%    100.00% |           0      0.00%    100.00% |           0      0.00%    100.00% |           0      0.00%    100.00% |           0      0.00%    100.00% |           0      0.00%    100.00% |           0      0.00%    100.00% |           0      0.00%    100.00% |           0      0.00%    100.00% |           0      0.00%    100.00% |           0      0.00%    100.00% |           0      0.00%    100.00% |           0      0.00%    100.00% |           0      0.00%    100.00% |           0      0.00%    100.00% |           0      0.00%    100.00% |           0      0.00%    100.00%
system.ruby.SimicsNetworkPortInterface_Controller.MessageRecv::total      1430584                      
system.ruby.SimicsNetworkPortInterface_Controller.A.MessageSend |      339394     23.72%     23.72% |      715292     50.00%     73.72% |       46496      3.25%     76.97% |       47263      3.30%     80.28% |       47446      3.32%     83.59% |       47436      3.32%     86.91% |       45875      3.21%     90.12% |       47462      3.32%     93.43% |       46719      3.27%     96.70% |       47201      3.30%    100.00% |           0      0.00%    100.00% |           0      0.00%    100.00% |           0      0.00%    100.00% |           0      0.00%    100.00% |           0      0.00%    100.00% |           0      0.00%    100.00% |           0      0.00%    100.00% |           0      0.00%    100.00% |           0      0.00%    100.00% |           0      0.00%    100.00% |           0      0.00%    100.00% |           0      0.00%    100.00% |           0      0.00%    100.00% |           0      0.00%    100.00% |           0      0.00%    100.00% |           0      0.00%    100.00% |           0      0.00%    100.00% |           0      0.00%    100.00% |           0      0.00%    100.00% |           0      0.00%    100.00% |           0      0.00%    100.00% |           0      0.00%    100.00%
system.ruby.SimicsNetworkPortInterface_Controller.A.MessageSend::total      1430584                      
system.ruby.SimicsNetworkPortInterface_Controller.A.MessageRecv |      339394     23.72%     23.72% |      715292     50.00%     73.72% |       46496      3.25%     76.97% |       47263      3.30%     80.28% |       47446      3.32%     83.59% |       47436      3.32%     86.91% |       45875      3.21%     90.12% |       47462      3.32%     93.43% |       46719      3.27%     96.70% |       47201      3.30%    100.00% |           0      0.00%    100.00% |           0      0.00%    100.00% |           0      0.00%    100.00% |           0      0.00%    100.00% |           0      0.00%    100.00% |           0      0.00%    100.00% |           0      0.00%    100.00% |           0      0.00%    100.00% |           0      0.00%    100.00% |           0      0.00%    100.00% |           0      0.00%    100.00% |           0      0.00%    100.00% |           0      0.00%    100.00% |           0      0.00%    100.00% |           0      0.00%    100.00% |           0      0.00%    100.00% |           0      0.00%    100.00% |           0      0.00%    100.00% |           0      0.00%    100.00% |           0      0.00%    100.00% |           0      0.00%    100.00% |           0      0.00%    100.00%
system.ruby.SimicsNetworkPortInterface_Controller.A.MessageRecv::total      1430584                      
system.switch_cpus.kern.inst.arm                    0                       # number of arm instructions executed
system.switch_cpus.kern.inst.quiesce                0                       # number of quiesce instructions executed

---------- End Simulation Statistics   ----------
