
---------- Begin Simulation Statistics ----------
sim_seconds                                  0.119697                       # Number of seconds simulated
sim_ticks                                119696874000                       # Number of ticks simulated
final_tick                               5295864952500                       # Number of ticks from beginning of simulation (restored from checkpoints and never reset)
sim_freq                                 1000000000000                       # Frequency of simulated ticks
host_inst_rate                                  20319                       # Simulator instruction rate (inst/s)
host_op_rate                                    35975                       # Simulator op (including micro ops) rate (op/s)
host_tick_rate                               44492732                       # Simulator tick rate (ticks/s)
host_mem_usage                                6106124                       # Number of bytes of host memory used
host_seconds                                  2690.26                       # Real time elapsed on the host
sim_insts                                    54662345                       # Number of instructions simulated
sim_ops                                      96783074                       # Number of ops (including micro ops) simulated
system.voltage_domain.voltage                       1                       # Voltage in Volts
system.clk_domain.clock                           500                       # Clock period in ticks
system.mem_ctrls0.bytes_read::ruby.dir_cntrl0     45328768                       # Number of bytes read from this memory
system.mem_ctrls0.bytes_read::total          45328768                       # Number of bytes read from this memory
system.mem_ctrls0.bytes_written::ruby.dir_cntrl0     20432000                       # Number of bytes written to this memory
system.mem_ctrls0.bytes_written::total       20432000                       # Number of bytes written to this memory
system.mem_ctrls0.num_reads::ruby.dir_cntrl0       708262                       # Number of read requests responded to by this memory
system.mem_ctrls0.num_reads::total             708262                       # Number of read requests responded to by this memory
system.mem_ctrls0.num_writes::ruby.dir_cntrl0       319250                       # Number of write requests responded to by this memory
system.mem_ctrls0.num_writes::total            319250                       # Number of write requests responded to by this memory
system.mem_ctrls0.bw_read::ruby.dir_cntrl0    378696339                       # Total read bandwidth from this memory (bytes/s)
system.mem_ctrls0.bw_read::total            378696339                       # Total read bandwidth from this memory (bytes/s)
system.mem_ctrls0.bw_write::ruby.dir_cntrl0    170697858                       # Write bandwidth from this memory (bytes/s)
system.mem_ctrls0.bw_write::total           170697858                       # Write bandwidth from this memory (bytes/s)
system.mem_ctrls0.bw_total::ruby.dir_cntrl0    549394197                       # Total bandwidth to/from this memory (bytes/s)
system.mem_ctrls0.bw_total::total           549394197                       # Total bandwidth to/from this memory (bytes/s)
system.mem_ctrls0.readReqs                     708262                       # Number of read requests accepted
system.mem_ctrls0.writeReqs                    319250                       # Number of write requests accepted
system.mem_ctrls0.readBursts                   708262                       # Number of DRAM read bursts, including those serviced by the write queue
system.mem_ctrls0.writeBursts                  319250                       # Number of DRAM write bursts, including those merged in the write queue
system.mem_ctrls0.bytesReadDRAM              45311296                       # Total number of bytes read from DRAM
system.mem_ctrls0.bytesReadWrQ                  17472                       # Total number of bytes read from write queue
system.mem_ctrls0.bytesWritten               20431744                       # Total number of bytes written to DRAM
system.mem_ctrls0.bytesReadSys               45328768                       # Total read bytes from the system interface side
system.mem_ctrls0.bytesWrittenSys            20432000                       # Total written bytes from the system interface side
system.mem_ctrls0.servicedByWrQ                   273                       # Number of DRAM read bursts serviced by the write queue
system.mem_ctrls0.mergedWrBursts                    0                       # Number of DRAM write bursts merged with an existing one
system.mem_ctrls0.neitherReadNorWriteReqs            0                       # Number of requests that are neither read nor write
system.mem_ctrls0.perBankRdBursts::0            44334                       # Per bank write bursts
system.mem_ctrls0.perBankRdBursts::1            44407                       # Per bank write bursts
system.mem_ctrls0.perBankRdBursts::2            43817                       # Per bank write bursts
system.mem_ctrls0.perBankRdBursts::3            44187                       # Per bank write bursts
system.mem_ctrls0.perBankRdBursts::4            44056                       # Per bank write bursts
system.mem_ctrls0.perBankRdBursts::5            44174                       # Per bank write bursts
system.mem_ctrls0.perBankRdBursts::6            45441                       # Per bank write bursts
system.mem_ctrls0.perBankRdBursts::7            44624                       # Per bank write bursts
system.mem_ctrls0.perBankRdBursts::8            43803                       # Per bank write bursts
system.mem_ctrls0.perBankRdBursts::9            44248                       # Per bank write bursts
system.mem_ctrls0.perBankRdBursts::10           43681                       # Per bank write bursts
system.mem_ctrls0.perBankRdBursts::11           44222                       # Per bank write bursts
system.mem_ctrls0.perBankRdBursts::12           43782                       # Per bank write bursts
system.mem_ctrls0.perBankRdBursts::13           43902                       # Per bank write bursts
system.mem_ctrls0.perBankRdBursts::14           44787                       # Per bank write bursts
system.mem_ctrls0.perBankRdBursts::15           44524                       # Per bank write bursts
system.mem_ctrls0.perBankWrBursts::0            19878                       # Per bank write bursts
system.mem_ctrls0.perBankWrBursts::1            20017                       # Per bank write bursts
system.mem_ctrls0.perBankWrBursts::2            19989                       # Per bank write bursts
system.mem_ctrls0.perBankWrBursts::3            20010                       # Per bank write bursts
system.mem_ctrls0.perBankWrBursts::4            19995                       # Per bank write bursts
system.mem_ctrls0.perBankWrBursts::5            20091                       # Per bank write bursts
system.mem_ctrls0.perBankWrBursts::6            20180                       # Per bank write bursts
system.mem_ctrls0.perBankWrBursts::7            20135                       # Per bank write bursts
system.mem_ctrls0.perBankWrBursts::8            19818                       # Per bank write bursts
system.mem_ctrls0.perBankWrBursts::9            20046                       # Per bank write bursts
system.mem_ctrls0.perBankWrBursts::10           19791                       # Per bank write bursts
system.mem_ctrls0.perBankWrBursts::11           19832                       # Per bank write bursts
system.mem_ctrls0.perBankWrBursts::12           19786                       # Per bank write bursts
system.mem_ctrls0.perBankWrBursts::13           19871                       # Per bank write bursts
system.mem_ctrls0.perBankWrBursts::14           19928                       # Per bank write bursts
system.mem_ctrls0.perBankWrBursts::15           19879                       # Per bank write bursts
system.mem_ctrls0.numRdRetry                   101644                       # Number of times read queue was full causing retry
system.mem_ctrls0.numWrRetry                    22855                       # Number of times write queue was full causing retry
system.mem_ctrls0.totGap                 119696470000                       # Total gap between requests
system.mem_ctrls0.readPktSize::0                    0                       # Read request sizes (log2)
system.mem_ctrls0.readPktSize::1                    0                       # Read request sizes (log2)
system.mem_ctrls0.readPktSize::2                    0                       # Read request sizes (log2)
system.mem_ctrls0.readPktSize::3                    0                       # Read request sizes (log2)
system.mem_ctrls0.readPktSize::4                    0                       # Read request sizes (log2)
system.mem_ctrls0.readPktSize::5                    0                       # Read request sizes (log2)
system.mem_ctrls0.readPktSize::6               708262                       # Read request sizes (log2)
system.mem_ctrls0.writePktSize::0                   0                       # Write request sizes (log2)
system.mem_ctrls0.writePktSize::1                   0                       # Write request sizes (log2)
system.mem_ctrls0.writePktSize::2                   0                       # Write request sizes (log2)
system.mem_ctrls0.writePktSize::3                   0                       # Write request sizes (log2)
system.mem_ctrls0.writePktSize::4                   0                       # Write request sizes (log2)
system.mem_ctrls0.writePktSize::5                   0                       # Write request sizes (log2)
system.mem_ctrls0.writePktSize::6              319250                       # Write request sizes (log2)
system.mem_ctrls0.rdQLenPdf::0                 176748                       # What read queue length does an incoming req see
system.mem_ctrls0.rdQLenPdf::1                  20862                       # What read queue length does an incoming req see
system.mem_ctrls0.rdQLenPdf::2                  20135                       # What read queue length does an incoming req see
system.mem_ctrls0.rdQLenPdf::3                  21075                       # What read queue length does an incoming req see
system.mem_ctrls0.rdQLenPdf::4                  21640                       # What read queue length does an incoming req see
system.mem_ctrls0.rdQLenPdf::5                  22136                       # What read queue length does an incoming req see
system.mem_ctrls0.rdQLenPdf::6                  22076                       # What read queue length does an incoming req see
system.mem_ctrls0.rdQLenPdf::7                  22020                       # What read queue length does an incoming req see
system.mem_ctrls0.rdQLenPdf::8                  21428                       # What read queue length does an incoming req see
system.mem_ctrls0.rdQLenPdf::9                  20684                       # What read queue length does an incoming req see
system.mem_ctrls0.rdQLenPdf::10                 20124                       # What read queue length does an incoming req see
system.mem_ctrls0.rdQLenPdf::11                 19052                       # What read queue length does an incoming req see
system.mem_ctrls0.rdQLenPdf::12                 17975                       # What read queue length does an incoming req see
system.mem_ctrls0.rdQLenPdf::13                 16770                       # What read queue length does an incoming req see
system.mem_ctrls0.rdQLenPdf::14                 15563                       # What read queue length does an incoming req see
system.mem_ctrls0.rdQLenPdf::15                 14490                       # What read queue length does an incoming req see
system.mem_ctrls0.rdQLenPdf::16                 13416                       # What read queue length does an incoming req see
system.mem_ctrls0.rdQLenPdf::17                 12184                       # What read queue length does an incoming req see
system.mem_ctrls0.rdQLenPdf::18                 11159                       # What read queue length does an incoming req see
system.mem_ctrls0.rdQLenPdf::19                 10425                       # What read queue length does an incoming req see
system.mem_ctrls0.rdQLenPdf::20                  9786                       # What read queue length does an incoming req see
system.mem_ctrls0.rdQLenPdf::21                  9071                       # What read queue length does an incoming req see
system.mem_ctrls0.rdQLenPdf::22                  8290                       # What read queue length does an incoming req see
system.mem_ctrls0.rdQLenPdf::23                  7666                       # What read queue length does an incoming req see
system.mem_ctrls0.rdQLenPdf::24                  7243                       # What read queue length does an incoming req see
system.mem_ctrls0.rdQLenPdf::25                  6961                       # What read queue length does an incoming req see
system.mem_ctrls0.rdQLenPdf::26                  6612                       # What read queue length does an incoming req see
system.mem_ctrls0.rdQLenPdf::27                  6230                       # What read queue length does an incoming req see
system.mem_ctrls0.rdQLenPdf::28                  5975                       # What read queue length does an incoming req see
system.mem_ctrls0.rdQLenPdf::29                  5751                       # What read queue length does an incoming req see
system.mem_ctrls0.rdQLenPdf::30                  5990                       # What read queue length does an incoming req see
system.mem_ctrls0.rdQLenPdf::31                108452                       # What read queue length does an incoming req see
system.mem_ctrls0.wrQLenPdf::0                  43594                       # What write queue length does an incoming req see
system.mem_ctrls0.wrQLenPdf::1                  47112                       # What write queue length does an incoming req see
system.mem_ctrls0.wrQLenPdf::2                  49461                       # What write queue length does an incoming req see
system.mem_ctrls0.wrQLenPdf::3                  50963                       # What write queue length does an incoming req see
system.mem_ctrls0.wrQLenPdf::4                  52359                       # What write queue length does an incoming req see
system.mem_ctrls0.wrQLenPdf::5                  18576                       # What write queue length does an incoming req see
system.mem_ctrls0.wrQLenPdf::6                  19425                       # What write queue length does an incoming req see
system.mem_ctrls0.wrQLenPdf::7                  37760                       # What write queue length does an incoming req see
system.mem_ctrls0.bytesPerActivate::samples       308812                       # Bytes accessed per row activation
system.mem_ctrls0.bytesPerActivate::mean   212.884992                       # Bytes accessed per row activation
system.mem_ctrls0.bytesPerActivate::gmean   160.604301                       # Bytes accessed per row activation
system.mem_ctrls0.bytesPerActivate::stdev   165.270911                       # Bytes accessed per row activation
system.mem_ctrls0.bytesPerActivate::0-127        97055     31.43%     31.43% # Bytes accessed per row activation
system.mem_ctrls0.bytesPerActivate::128-255        92100     29.82%     61.25% # Bytes accessed per row activation
system.mem_ctrls0.bytesPerActivate::256-383        73099     23.67%     84.92% # Bytes accessed per row activation
system.mem_ctrls0.bytesPerActivate::384-511        21275      6.89%     91.81% # Bytes accessed per row activation
system.mem_ctrls0.bytesPerActivate::512-639        16787      5.44%     97.25% # Bytes accessed per row activation
system.mem_ctrls0.bytesPerActivate::640-767         4059      1.31%     98.56% # Bytes accessed per row activation
system.mem_ctrls0.bytesPerActivate::768-895         2359      0.76%     99.33% # Bytes accessed per row activation
system.mem_ctrls0.bytesPerActivate::896-1023         1536      0.50%     99.82% # Bytes accessed per row activation
system.mem_ctrls0.bytesPerActivate::1024-1151          542      0.18%    100.00% # Bytes accessed per row activation
system.mem_ctrls0.bytesPerActivate::total       308812                       # Bytes accessed per row activation
system.mem_ctrls0.rdPerTurnAround::samples        46140                       # Reads before turning the bus around for writes
system.mem_ctrls0.rdPerTurnAround::mean     15.343997                       # Reads before turning the bus around for writes
system.mem_ctrls0.rdPerTurnAround::stdev    38.765630                       # Reads before turning the bus around for writes
system.mem_ctrls0.rdPerTurnAround::0-127        45760     99.18%     99.18% # Reads before turning the bus around for writes
system.mem_ctrls0.rdPerTurnAround::128-255          263      0.57%     99.75% # Reads before turning the bus around for writes
system.mem_ctrls0.rdPerTurnAround::256-383           58      0.13%     99.87% # Reads before turning the bus around for writes
system.mem_ctrls0.rdPerTurnAround::384-511           26      0.06%     99.93% # Reads before turning the bus around for writes
system.mem_ctrls0.rdPerTurnAround::512-639            9      0.02%     99.95% # Reads before turning the bus around for writes
system.mem_ctrls0.rdPerTurnAround::640-767            9      0.02%     99.97% # Reads before turning the bus around for writes
system.mem_ctrls0.rdPerTurnAround::768-895            5      0.01%     99.98% # Reads before turning the bus around for writes
system.mem_ctrls0.rdPerTurnAround::896-1023            4      0.01%     99.99% # Reads before turning the bus around for writes
system.mem_ctrls0.rdPerTurnAround::1024-1151            2      0.00%     99.99% # Reads before turning the bus around for writes
system.mem_ctrls0.rdPerTurnAround::1280-1407            1      0.00%     99.99% # Reads before turning the bus around for writes
system.mem_ctrls0.rdPerTurnAround::1536-1663            1      0.00%    100.00% # Reads before turning the bus around for writes
system.mem_ctrls0.rdPerTurnAround::1792-1919            1      0.00%    100.00% # Reads before turning the bus around for writes
system.mem_ctrls0.rdPerTurnAround::3968-4095            1      0.00%    100.00% # Reads before turning the bus around for writes
system.mem_ctrls0.rdPerTurnAround::total        46140                       # Reads before turning the bus around for writes
system.mem_ctrls0.wrPerTurnAround::samples        46140                       # Writes before turning the bus around for reads
system.mem_ctrls0.wrPerTurnAround::mean      6.919072                       # Writes before turning the bus around for reads
system.mem_ctrls0.wrPerTurnAround::gmean     6.312933                       # Writes before turning the bus around for reads
system.mem_ctrls0.wrPerTurnAround::stdev     3.474802                       # Writes before turning the bus around for reads
system.mem_ctrls0.wrPerTurnAround::4-7          34772     75.36%     75.36% # Writes before turning the bus around for reads
system.mem_ctrls0.wrPerTurnAround::8-11          4854     10.52%     85.88% # Writes before turning the bus around for reads
system.mem_ctrls0.wrPerTurnAround::12-15         3373      7.31%     93.19% # Writes before turning the bus around for reads
system.mem_ctrls0.wrPerTurnAround::16-19         3141      6.81%    100.00% # Writes before turning the bus around for reads
system.mem_ctrls0.wrPerTurnAround::total        46140                       # Writes before turning the bus around for reads
system.mem_ctrls0.totQLat                 85225710060                       # Total ticks spent queuing
system.mem_ctrls0.totMemAccLat            98500503810                       # Total ticks spent from burst creation until serviced by the DRAM
system.mem_ctrls0.totBusLat                3539945000                       # Total ticks spent in databus transfers
system.mem_ctrls0.avgQLat                   120377.17                       # Average queueing delay per DRAM burst
system.mem_ctrls0.avgBusLat                   5000.00                       # Average bus latency per DRAM burst
system.mem_ctrls0.avgMemAccLat              139127.17                       # Average memory access latency per DRAM burst
system.mem_ctrls0.avgRdBW                      378.55                       # Average DRAM read bandwidth in MiByte/s
system.mem_ctrls0.avgWrBW                      170.70                       # Average achieved write bandwidth in MiByte/s
system.mem_ctrls0.avgRdBWSys                   378.70                       # Average system read bandwidth in MiByte/s
system.mem_ctrls0.avgWrBWSys                   170.70                       # Average system write bandwidth in MiByte/s
system.mem_ctrls0.peakBW                     12800.00                       # Theoretical peak bandwidth in MiByte/s
system.mem_ctrls0.busUtil                        4.29                       # Data bus utilization in percentage
system.mem_ctrls0.busUtilRead                    2.96                       # Data bus utilization in percentage for reads
system.mem_ctrls0.busUtilWrite                   1.33                       # Data bus utilization in percentage for writes
system.mem_ctrls0.avgRdQLen                      1.96                       # Average read queue length when enqueuing
system.mem_ctrls0.avgWrQLen                      3.06                       # Average write queue length when enqueuing
system.mem_ctrls0.readRowHits                  537820                       # Number of row buffer hits during reads
system.mem_ctrls0.writeRowHits                 180588                       # Number of row buffer hits during writes
system.mem_ctrls0.readRowHitRate                75.96                       # Row buffer hit rate for reads
system.mem_ctrls0.writeRowHitRate               56.57                       # Row buffer hit rate for writes
system.mem_ctrls0.avgGap                    116491.55                       # Average gap between requests
system.mem_ctrls0.pageHitRate                   69.94                       # Row buffer hit rate, read and write combined
system.mem_ctrls0.memoryStateTime::IDLE   20233471250                       # Time in different power states
system.mem_ctrls0.memoryStateTime::REF     3996720000                       # Time in different power states
system.mem_ctrls0.memoryStateTime::PRE_PDN            0                       # Time in different power states
system.mem_ctrls0.memoryStateTime::ACT    95460380500                       # Time in different power states
system.mem_ctrls0.memoryStateTime::ACT_PDN            0                       # Time in different power states
system.mem_ctrls0.actEnergy::0             1172971800                       # Energy for activate commands per rank (pJ)
system.mem_ctrls0.actEnergy::1             1161087480                       # Energy for activate commands per rank (pJ)
system.mem_ctrls0.preEnergy::0              640014375                       # Energy for precharge commands per rank (pJ)
system.mem_ctrls0.preEnergy::1              633529875                       # Energy for precharge commands per rank (pJ)
system.mem_ctrls0.readEnergy::0            2768695800                       # Energy for read commands per rank (pJ)
system.mem_ctrls0.readEnergy::1            2752308000                       # Energy for read commands per rank (pJ)
system.mem_ctrls0.writeEnergy::0           1038543120                       # Energy for write commands per rank (pJ)
system.mem_ctrls0.writeEnergy::1           1029769200                       # Energy for write commands per rank (pJ)
system.mem_ctrls0.refreshEnergy::0         7817584320                       # Energy for refresh commands per rank (pJ)
system.mem_ctrls0.refreshEnergy::1         7817584320                       # Energy for refresh commands per rank (pJ)
system.mem_ctrls0.actBackEnergy::0        49341424140                       # Energy for active background per rank (pJ)
system.mem_ctrls0.actBackEnergy::1        48871671750                       # Energy for active background per rank (pJ)
system.mem_ctrls0.preBackEnergy::0        28532384250                       # Energy for precharge background per rank (pJ)
system.mem_ctrls0.preBackEnergy::1        28944447750                       # Energy for precharge background per rank (pJ)
system.mem_ctrls0.totalEnergy::0          91311617805                       # Total energy per rank (pJ)
system.mem_ctrls0.totalEnergy::1          91210398375                       # Total energy per rank (pJ)
system.mem_ctrls0.averagePower::0          762.897414                       # Core power per rank (mW)
system.mem_ctrls0.averagePower::1          762.051738                       # Core power per rank (mW)
system.mem_ctrls1.bytes_read::ruby.dir_cntrl1     44769920                       # Number of bytes read from this memory
system.mem_ctrls1.bytes_read::total          44769920                       # Number of bytes read from this memory
system.mem_ctrls1.bytes_written::ruby.dir_cntrl1     19871808                       # Number of bytes written to this memory
system.mem_ctrls1.bytes_written::total       19871808                       # Number of bytes written to this memory
system.mem_ctrls1.num_reads::ruby.dir_cntrl1       699530                       # Number of read requests responded to by this memory
system.mem_ctrls1.num_reads::total             699530                       # Number of read requests responded to by this memory
system.mem_ctrls1.num_writes::ruby.dir_cntrl1       310497                       # Number of write requests responded to by this memory
system.mem_ctrls1.num_writes::total            310497                       # Number of write requests responded to by this memory
system.mem_ctrls1.bw_read::ruby.dir_cntrl1    374027479                       # Total read bandwidth from this memory (bytes/s)
system.mem_ctrls1.bw_read::total            374027479                       # Total read bandwidth from this memory (bytes/s)
system.mem_ctrls1.bw_write::ruby.dir_cntrl1    166017769                       # Write bandwidth from this memory (bytes/s)
system.mem_ctrls1.bw_write::total           166017769                       # Write bandwidth from this memory (bytes/s)
system.mem_ctrls1.bw_total::ruby.dir_cntrl1    540045248                       # Total bandwidth to/from this memory (bytes/s)
system.mem_ctrls1.bw_total::total           540045248                       # Total bandwidth to/from this memory (bytes/s)
system.mem_ctrls1.readReqs                     699530                       # Number of read requests accepted
system.mem_ctrls1.writeReqs                    310497                       # Number of write requests accepted
system.mem_ctrls1.readBursts                   699530                       # Number of DRAM read bursts, including those serviced by the write queue
system.mem_ctrls1.writeBursts                  310497                       # Number of DRAM write bursts, including those merged in the write queue
system.mem_ctrls1.bytesReadDRAM              44752896                       # Total number of bytes read from DRAM
system.mem_ctrls1.bytesReadWrQ                  17024                       # Total number of bytes read from write queue
system.mem_ctrls1.bytesWritten               19871616                       # Total number of bytes written to DRAM
system.mem_ctrls1.bytesReadSys               44769920                       # Total read bytes from the system interface side
system.mem_ctrls1.bytesWrittenSys            19871808                       # Total written bytes from the system interface side
system.mem_ctrls1.servicedByWrQ                   266                       # Number of DRAM read bursts serviced by the write queue
system.mem_ctrls1.mergedWrBursts                    0                       # Number of DRAM write bursts merged with an existing one
system.mem_ctrls1.neitherReadNorWriteReqs            0                       # Number of requests that are neither read nor write
system.mem_ctrls1.perBankRdBursts::0            43892                       # Per bank write bursts
system.mem_ctrls1.perBankRdBursts::1            43953                       # Per bank write bursts
system.mem_ctrls1.perBankRdBursts::2            43244                       # Per bank write bursts
system.mem_ctrls1.perBankRdBursts::3            43616                       # Per bank write bursts
system.mem_ctrls1.perBankRdBursts::4            43530                       # Per bank write bursts
system.mem_ctrls1.perBankRdBursts::5            43483                       # Per bank write bursts
system.mem_ctrls1.perBankRdBursts::6            45004                       # Per bank write bursts
system.mem_ctrls1.perBankRdBursts::7            44169                       # Per bank write bursts
system.mem_ctrls1.perBankRdBursts::8            43329                       # Per bank write bursts
system.mem_ctrls1.perBankRdBursts::9            43663                       # Per bank write bursts
system.mem_ctrls1.perBankRdBursts::10           43080                       # Per bank write bursts
system.mem_ctrls1.perBankRdBursts::11           43728                       # Per bank write bursts
system.mem_ctrls1.perBankRdBursts::12           43224                       # Per bank write bursts
system.mem_ctrls1.perBankRdBursts::13           43289                       # Per bank write bursts
system.mem_ctrls1.perBankRdBursts::14           44009                       # Per bank write bursts
system.mem_ctrls1.perBankRdBursts::15           44051                       # Per bank write bursts
system.mem_ctrls1.perBankWrBursts::0            19335                       # Per bank write bursts
system.mem_ctrls1.perBankWrBursts::1            19466                       # Per bank write bursts
system.mem_ctrls1.perBankWrBursts::2            19483                       # Per bank write bursts
system.mem_ctrls1.perBankWrBursts::3            19494                       # Per bank write bursts
system.mem_ctrls1.perBankWrBursts::4            19465                       # Per bank write bursts
system.mem_ctrls1.perBankWrBursts::5            19500                       # Per bank write bursts
system.mem_ctrls1.perBankWrBursts::6            19605                       # Per bank write bursts
system.mem_ctrls1.perBankWrBursts::7            19632                       # Per bank write bursts
system.mem_ctrls1.perBankWrBursts::8            19214                       # Per bank write bursts
system.mem_ctrls1.perBankWrBursts::9            19456                       # Per bank write bursts
system.mem_ctrls1.perBankWrBursts::10           19253                       # Per bank write bursts
system.mem_ctrls1.perBankWrBursts::11           19344                       # Per bank write bursts
system.mem_ctrls1.perBankWrBursts::12           19224                       # Per bank write bursts
system.mem_ctrls1.perBankWrBursts::13           19321                       # Per bank write bursts
system.mem_ctrls1.perBankWrBursts::14           19294                       # Per bank write bursts
system.mem_ctrls1.perBankWrBursts::15           19408                       # Per bank write bursts
system.mem_ctrls1.numRdRetry                   100480                       # Number of times read queue was full causing retry
system.mem_ctrls1.numWrRetry                    22058                       # Number of times write queue was full causing retry
system.mem_ctrls1.totGap                 119696204000                       # Total gap between requests
system.mem_ctrls1.readPktSize::0                    0                       # Read request sizes (log2)
system.mem_ctrls1.readPktSize::1                    0                       # Read request sizes (log2)
system.mem_ctrls1.readPktSize::2                    0                       # Read request sizes (log2)
system.mem_ctrls1.readPktSize::3                    0                       # Read request sizes (log2)
system.mem_ctrls1.readPktSize::4                    0                       # Read request sizes (log2)
system.mem_ctrls1.readPktSize::5                    0                       # Read request sizes (log2)
system.mem_ctrls1.readPktSize::6               699530                       # Read request sizes (log2)
system.mem_ctrls1.writePktSize::0                   0                       # Write request sizes (log2)
system.mem_ctrls1.writePktSize::1                   0                       # Write request sizes (log2)
system.mem_ctrls1.writePktSize::2                   0                       # Write request sizes (log2)
system.mem_ctrls1.writePktSize::3                   0                       # Write request sizes (log2)
system.mem_ctrls1.writePktSize::4                   0                       # Write request sizes (log2)
system.mem_ctrls1.writePktSize::5                   0                       # Write request sizes (log2)
system.mem_ctrls1.writePktSize::6              310497                       # Write request sizes (log2)
system.mem_ctrls1.rdQLenPdf::0                 169656                       # What read queue length does an incoming req see
system.mem_ctrls1.rdQLenPdf::1                  19617                       # What read queue length does an incoming req see
system.mem_ctrls1.rdQLenPdf::2                  20201                       # What read queue length does an incoming req see
system.mem_ctrls1.rdQLenPdf::3                  21126                       # What read queue length does an incoming req see
system.mem_ctrls1.rdQLenPdf::4                  21886                       # What read queue length does an incoming req see
system.mem_ctrls1.rdQLenPdf::5                  22218                       # What read queue length does an incoming req see
system.mem_ctrls1.rdQLenPdf::6                  22283                       # What read queue length does an incoming req see
system.mem_ctrls1.rdQLenPdf::7                  22122                       # What read queue length does an incoming req see
system.mem_ctrls1.rdQLenPdf::8                  21204                       # What read queue length does an incoming req see
system.mem_ctrls1.rdQLenPdf::9                  20550                       # What read queue length does an incoming req see
system.mem_ctrls1.rdQLenPdf::10                 19887                       # What read queue length does an incoming req see
system.mem_ctrls1.rdQLenPdf::11                 19024                       # What read queue length does an incoming req see
system.mem_ctrls1.rdQLenPdf::12                 18202                       # What read queue length does an incoming req see
system.mem_ctrls1.rdQLenPdf::13                 16837                       # What read queue length does an incoming req see
system.mem_ctrls1.rdQLenPdf::14                 15437                       # What read queue length does an incoming req see
system.mem_ctrls1.rdQLenPdf::15                 14613                       # What read queue length does an incoming req see
system.mem_ctrls1.rdQLenPdf::16                 13355                       # What read queue length does an incoming req see
system.mem_ctrls1.rdQLenPdf::17                 12351                       # What read queue length does an incoming req see
system.mem_ctrls1.rdQLenPdf::18                 11424                       # What read queue length does an incoming req see
system.mem_ctrls1.rdQLenPdf::19                 10638                       # What read queue length does an incoming req see
system.mem_ctrls1.rdQLenPdf::20                  9646                       # What read queue length does an incoming req see
system.mem_ctrls1.rdQLenPdf::21                  8965                       # What read queue length does an incoming req see
system.mem_ctrls1.rdQLenPdf::22                  8441                       # What read queue length does an incoming req see
system.mem_ctrls1.rdQLenPdf::23                  8038                       # What read queue length does an incoming req see
system.mem_ctrls1.rdQLenPdf::24                  7424                       # What read queue length does an incoming req see
system.mem_ctrls1.rdQLenPdf::25                  6932                       # What read queue length does an incoming req see
system.mem_ctrls1.rdQLenPdf::26                  6602                       # What read queue length does an incoming req see
system.mem_ctrls1.rdQLenPdf::27                  6158                       # What read queue length does an incoming req see
system.mem_ctrls1.rdQLenPdf::28                  5851                       # What read queue length does an incoming req see
system.mem_ctrls1.rdQLenPdf::29                  5705                       # What read queue length does an incoming req see
system.mem_ctrls1.rdQLenPdf::30                  5751                       # What read queue length does an incoming req see
system.mem_ctrls1.rdQLenPdf::31                107120                       # What read queue length does an incoming req see
system.mem_ctrls1.wrQLenPdf::0                  41962                       # What write queue length does an incoming req see
system.mem_ctrls1.wrQLenPdf::1                  45364                       # What write queue length does an incoming req see
system.mem_ctrls1.wrQLenPdf::2                  47592                       # What write queue length does an incoming req see
system.mem_ctrls1.wrQLenPdf::3                  49256                       # What write queue length does an incoming req see
system.mem_ctrls1.wrQLenPdf::4                  50781                       # What write queue length does an incoming req see
system.mem_ctrls1.wrQLenPdf::5                  18756                       # What write queue length does an incoming req see
system.mem_ctrls1.wrQLenPdf::6                  19621                       # What write queue length does an incoming req see
system.mem_ctrls1.wrQLenPdf::7                  37165                       # What write queue length does an incoming req see
system.mem_ctrls1.bytesPerActivate::samples       294698                       # Bytes accessed per row activation
system.mem_ctrls1.bytesPerActivate::mean   219.282384                       # Bytes accessed per row activation
system.mem_ctrls1.bytesPerActivate::gmean   165.488628                       # Bytes accessed per row activation
system.mem_ctrls1.bytesPerActivate::stdev   167.788019                       # Bytes accessed per row activation
system.mem_ctrls1.bytesPerActivate::0-127        89880     30.50%     30.50% # Bytes accessed per row activation
system.mem_ctrls1.bytesPerActivate::128-255        84665     28.73%     59.23% # Bytes accessed per row activation
system.mem_ctrls1.bytesPerActivate::256-383        73198     24.84%     84.07% # Bytes accessed per row activation
system.mem_ctrls1.bytesPerActivate::384-511        21479      7.29%     91.36% # Bytes accessed per row activation
system.mem_ctrls1.bytesPerActivate::512-639        16816      5.71%     97.06% # Bytes accessed per row activation
system.mem_ctrls1.bytesPerActivate::640-767         4096      1.39%     98.45% # Bytes accessed per row activation
system.mem_ctrls1.bytesPerActivate::768-895         2418      0.82%     99.27% # Bytes accessed per row activation
system.mem_ctrls1.bytesPerActivate::896-1023         1610      0.55%     99.82% # Bytes accessed per row activation
system.mem_ctrls1.bytesPerActivate::1024-1151          536      0.18%    100.00% # Bytes accessed per row activation
system.mem_ctrls1.bytesPerActivate::total       294698                       # Bytes accessed per row activation
system.mem_ctrls1.rdPerTurnAround::samples        44489                       # Reads before turning the bus around for writes
system.mem_ctrls1.rdPerTurnAround::mean     15.717166                       # Reads before turning the bus around for writes
system.mem_ctrls1.rdPerTurnAround::stdev    36.967967                       # Reads before turning the bus around for writes
system.mem_ctrls1.rdPerTurnAround::0-127        44130     99.19%     99.19% # Reads before turning the bus around for writes
system.mem_ctrls1.rdPerTurnAround::128-255          238      0.53%     99.73% # Reads before turning the bus around for writes
system.mem_ctrls1.rdPerTurnAround::256-383           61      0.14%     99.87% # Reads before turning the bus around for writes
system.mem_ctrls1.rdPerTurnAround::384-511           27      0.06%     99.93% # Reads before turning the bus around for writes
system.mem_ctrls1.rdPerTurnAround::512-639           12      0.03%     99.95% # Reads before turning the bus around for writes
system.mem_ctrls1.rdPerTurnAround::640-767            4      0.01%     99.96% # Reads before turning the bus around for writes
system.mem_ctrls1.rdPerTurnAround::768-895            6      0.01%     99.98% # Reads before turning the bus around for writes
system.mem_ctrls1.rdPerTurnAround::896-1023            5      0.01%     99.99% # Reads before turning the bus around for writes
system.mem_ctrls1.rdPerTurnAround::1152-1279            2      0.00%     99.99% # Reads before turning the bus around for writes
system.mem_ctrls1.rdPerTurnAround::1280-1407            1      0.00%     99.99% # Reads before turning the bus around for writes
system.mem_ctrls1.rdPerTurnAround::1408-1535            2      0.00%    100.00% # Reads before turning the bus around for writes
system.mem_ctrls1.rdPerTurnAround::2816-2943            1      0.00%    100.00% # Reads before turning the bus around for writes
system.mem_ctrls1.rdPerTurnAround::total        44489                       # Reads before turning the bus around for writes
system.mem_ctrls1.wrPerTurnAround::samples        44489                       # Writes before turning the bus around for reads
system.mem_ctrls1.wrPerTurnAround::mean      6.979118                       # Writes before turning the bus around for reads
system.mem_ctrls1.wrPerTurnAround::gmean     6.356397                       # Writes before turning the bus around for reads
system.mem_ctrls1.wrPerTurnAround::stdev     3.520586                       # Writes before turning the bus around for reads
system.mem_ctrls1.wrPerTurnAround::4-7          33201     74.63%     74.63% # Writes before turning the bus around for reads
system.mem_ctrls1.wrPerTurnAround::8-11          4747     10.67%     85.30% # Writes before turning the bus around for reads
system.mem_ctrls1.wrPerTurnAround::12-15         3406      7.66%     92.95% # Writes before turning the bus around for reads
system.mem_ctrls1.wrPerTurnAround::16-19         3135      7.05%    100.00% # Writes before turning the bus around for reads
system.mem_ctrls1.wrPerTurnAround::total        44489                       # Writes before turning the bus around for reads
system.mem_ctrls1.totQLat                 84525990075                       # Total ticks spent queuing
system.mem_ctrls1.totMemAccLat            97637190075                       # Total ticks spent from burst creation until serviced by the DRAM
system.mem_ctrls1.totBusLat                3496320000                       # Total ticks spent in databus transfers
system.mem_ctrls1.avgQLat                   120878.51                       # Average queueing delay per DRAM burst
system.mem_ctrls1.avgBusLat                   5000.00                       # Average bus latency per DRAM burst
system.mem_ctrls1.avgMemAccLat              139628.51                       # Average memory access latency per DRAM burst
system.mem_ctrls1.avgRdBW                      373.89                       # Average DRAM read bandwidth in MiByte/s
system.mem_ctrls1.avgWrBW                      166.02                       # Average achieved write bandwidth in MiByte/s
system.mem_ctrls1.avgRdBWSys                   374.03                       # Average system read bandwidth in MiByte/s
system.mem_ctrls1.avgWrBWSys                   166.02                       # Average system write bandwidth in MiByte/s
system.mem_ctrls1.peakBW                     12800.00                       # Theoretical peak bandwidth in MiByte/s
system.mem_ctrls1.busUtil                        4.22                       # Data bus utilization in percentage
system.mem_ctrls1.busUtilRead                    2.92                       # Data bus utilization in percentage for reads
system.mem_ctrls1.busUtilWrite                   1.30                       # Data bus utilization in percentage for writes
system.mem_ctrls1.avgRdQLen                      1.95                       # Average read queue length when enqueuing
system.mem_ctrls1.avgWrQLen                      3.05                       # Average write queue length when enqueuing
system.mem_ctrls1.readRowHits                  534660                       # Number of row buffer hits during reads
system.mem_ctrls1.writeRowHits                 180384                       # Number of row buffer hits during writes
system.mem_ctrls1.readRowHitRate                76.46                       # Row buffer hit rate for reads
system.mem_ctrls1.writeRowHitRate               58.10                       # Row buffer hit rate for writes
system.mem_ctrls1.avgGap                    118507.93                       # Average gap between requests
system.mem_ctrls1.pageHitRate                   70.81                       # Row buffer hit rate, read and write combined
system.mem_ctrls1.memoryStateTime::IDLE   20726516750                       # Time in different power states
system.mem_ctrls1.memoryStateTime::REF     3996720000                       # Time in different power states
system.mem_ctrls1.memoryStateTime::PRE_PDN            0                       # Time in different power states
system.mem_ctrls1.memoryStateTime::ACT    94967334750                       # Time in different power states
system.mem_ctrls1.memoryStateTime::ACT_PDN            0                       # Time in different power states
system.mem_ctrls1.actEnergy::0             1122886800                       # Energy for activate commands per rank (pJ)
system.mem_ctrls1.actEnergy::1             1104516000                       # Energy for activate commands per rank (pJ)
system.mem_ctrls1.preEnergy::0              612686250                       # Energy for precharge commands per rank (pJ)
system.mem_ctrls1.preEnergy::1              602662500                       # Energy for precharge commands per rank (pJ)
system.mem_ctrls1.readEnergy::0            2736294600                       # Energy for read commands per rank (pJ)
system.mem_ctrls1.readEnergy::1            2716646400                       # Energy for read commands per rank (pJ)
system.mem_ctrls1.writeEnergy::0           1010536560                       # Energy for write commands per rank (pJ)
system.mem_ctrls1.writeEnergy::1           1001036880                       # Energy for write commands per rank (pJ)
system.mem_ctrls1.refreshEnergy::0         7817584320                       # Energy for refresh commands per rank (pJ)
system.mem_ctrls1.refreshEnergy::1         7817584320                       # Energy for refresh commands per rank (pJ)
system.mem_ctrls1.actBackEnergy::0        48131286210                       # Energy for active background per rank (pJ)
system.mem_ctrls1.actBackEnergy::1        47905579035                       # Energy for active background per rank (pJ)
system.mem_ctrls1.preBackEnergy::0        29593908000                       # Energy for precharge background per rank (pJ)
system.mem_ctrls1.preBackEnergy::1        29791896750                       # Energy for precharge background per rank (pJ)
system.mem_ctrls1.totalEnergy::0          91025182740                       # Total energy per rank (pJ)
system.mem_ctrls1.totalEnergy::1          90939921885                       # Total energy per rank (pJ)
system.mem_ctrls1.averagePower::0          760.504292                       # Core power per rank (mW)
system.mem_ctrls1.averagePower::1          759.791948                       # Core power per rank (mW)
system.mem_ctrls2.bytes_read::ruby.dir_cntrl2     44727040                       # Number of bytes read from this memory
system.mem_ctrls2.bytes_read::total          44727040                       # Number of bytes read from this memory
system.mem_ctrls2.bytes_written::ruby.dir_cntrl2     19870336                       # Number of bytes written to this memory
system.mem_ctrls2.bytes_written::total       19870336                       # Number of bytes written to this memory
system.mem_ctrls2.num_reads::ruby.dir_cntrl2       698860                       # Number of read requests responded to by this memory
system.mem_ctrls2.num_reads::total             698860                       # Number of read requests responded to by this memory
system.mem_ctrls2.num_writes::ruby.dir_cntrl2       310474                       # Number of write requests responded to by this memory
system.mem_ctrls2.num_writes::total            310474                       # Number of write requests responded to by this memory
system.mem_ctrls2.bw_read::ruby.dir_cntrl2    373669241                       # Total read bandwidth from this memory (bytes/s)
system.mem_ctrls2.bw_read::total            373669241                       # Total read bandwidth from this memory (bytes/s)
system.mem_ctrls2.bw_write::ruby.dir_cntrl2    166005471                       # Write bandwidth from this memory (bytes/s)
system.mem_ctrls2.bw_write::total           166005471                       # Write bandwidth from this memory (bytes/s)
system.mem_ctrls2.bw_total::ruby.dir_cntrl2    539674712                       # Total bandwidth to/from this memory (bytes/s)
system.mem_ctrls2.bw_total::total           539674712                       # Total bandwidth to/from this memory (bytes/s)
system.mem_ctrls2.readReqs                     698860                       # Number of read requests accepted
system.mem_ctrls2.writeReqs                    310474                       # Number of write requests accepted
system.mem_ctrls2.readBursts                   698860                       # Number of DRAM read bursts, including those serviced by the write queue
system.mem_ctrls2.writeBursts                  310474                       # Number of DRAM write bursts, including those merged in the write queue
system.mem_ctrls2.bytesReadDRAM              44713152                       # Total number of bytes read from DRAM
system.mem_ctrls2.bytesReadWrQ                  13888                       # Total number of bytes read from write queue
system.mem_ctrls2.bytesWritten               19870336                       # Total number of bytes written to DRAM
system.mem_ctrls2.bytesReadSys               44727040                       # Total read bytes from the system interface side
system.mem_ctrls2.bytesWrittenSys            19870336                       # Total written bytes from the system interface side
system.mem_ctrls2.servicedByWrQ                   217                       # Number of DRAM read bursts serviced by the write queue
system.mem_ctrls2.mergedWrBursts                    0                       # Number of DRAM write bursts merged with an existing one
system.mem_ctrls2.neitherReadNorWriteReqs            0                       # Number of requests that are neither read nor write
system.mem_ctrls2.perBankRdBursts::0            43845                       # Per bank write bursts
system.mem_ctrls2.perBankRdBursts::1            43752                       # Per bank write bursts
system.mem_ctrls2.perBankRdBursts::2            43338                       # Per bank write bursts
system.mem_ctrls2.perBankRdBursts::3            43614                       # Per bank write bursts
system.mem_ctrls2.perBankRdBursts::4            43701                       # Per bank write bursts
system.mem_ctrls2.perBankRdBursts::5            43361                       # Per bank write bursts
system.mem_ctrls2.perBankRdBursts::6            44919                       # Per bank write bursts
system.mem_ctrls2.perBankRdBursts::7            43973                       # Per bank write bursts
system.mem_ctrls2.perBankRdBursts::8            43388                       # Per bank write bursts
system.mem_ctrls2.perBankRdBursts::9            43457                       # Per bank write bursts
system.mem_ctrls2.perBankRdBursts::10           43202                       # Per bank write bursts
system.mem_ctrls2.perBankRdBursts::11           43761                       # Per bank write bursts
system.mem_ctrls2.perBankRdBursts::12           43321                       # Per bank write bursts
system.mem_ctrls2.perBankRdBursts::13           43085                       # Per bank write bursts
system.mem_ctrls2.perBankRdBursts::14           44055                       # Per bank write bursts
system.mem_ctrls2.perBankRdBursts::15           43871                       # Per bank write bursts
system.mem_ctrls2.perBankWrBursts::0            19379                       # Per bank write bursts
system.mem_ctrls2.perBankWrBursts::1            19430                       # Per bank write bursts
system.mem_ctrls2.perBankWrBursts::2            19483                       # Per bank write bursts
system.mem_ctrls2.perBankWrBursts::3            19490                       # Per bank write bursts
system.mem_ctrls2.perBankWrBursts::4            19515                       # Per bank write bursts
system.mem_ctrls2.perBankWrBursts::5            19453                       # Per bank write bursts
system.mem_ctrls2.perBankWrBursts::6            19570                       # Per bank write bursts
system.mem_ctrls2.perBankWrBursts::7            19576                       # Per bank write bursts
system.mem_ctrls2.perBankWrBursts::8            19298                       # Per bank write bursts
system.mem_ctrls2.perBankWrBursts::9            19407                       # Per bank write bursts
system.mem_ctrls2.perBankWrBursts::10           19270                       # Per bank write bursts
system.mem_ctrls2.perBankWrBursts::11           19332                       # Per bank write bursts
system.mem_ctrls2.perBankWrBursts::12           19284                       # Per bank write bursts
system.mem_ctrls2.perBankWrBursts::13           19279                       # Per bank write bursts
system.mem_ctrls2.perBankWrBursts::14           19347                       # Per bank write bursts
system.mem_ctrls2.perBankWrBursts::15           19361                       # Per bank write bursts
system.mem_ctrls2.numRdRetry                    96658                       # Number of times read queue was full causing retry
system.mem_ctrls2.numWrRetry                    22960                       # Number of times write queue was full causing retry
system.mem_ctrls2.totGap                 119696819000                       # Total gap between requests
system.mem_ctrls2.readPktSize::0                    0                       # Read request sizes (log2)
system.mem_ctrls2.readPktSize::1                    0                       # Read request sizes (log2)
system.mem_ctrls2.readPktSize::2                    0                       # Read request sizes (log2)
system.mem_ctrls2.readPktSize::3                    0                       # Read request sizes (log2)
system.mem_ctrls2.readPktSize::4                    0                       # Read request sizes (log2)
system.mem_ctrls2.readPktSize::5                    0                       # Read request sizes (log2)
system.mem_ctrls2.readPktSize::6               698860                       # Read request sizes (log2)
system.mem_ctrls2.writePktSize::0                   0                       # Write request sizes (log2)
system.mem_ctrls2.writePktSize::1                   0                       # Write request sizes (log2)
system.mem_ctrls2.writePktSize::2                   0                       # Write request sizes (log2)
system.mem_ctrls2.writePktSize::3                   0                       # Write request sizes (log2)
system.mem_ctrls2.writePktSize::4                   0                       # Write request sizes (log2)
system.mem_ctrls2.writePktSize::5                   0                       # Write request sizes (log2)
system.mem_ctrls2.writePktSize::6              310474                       # Write request sizes (log2)
system.mem_ctrls2.rdQLenPdf::0                 169952                       # What read queue length does an incoming req see
system.mem_ctrls2.rdQLenPdf::1                  19487                       # What read queue length does an incoming req see
system.mem_ctrls2.rdQLenPdf::2                  20222                       # What read queue length does an incoming req see
system.mem_ctrls2.rdQLenPdf::3                  21192                       # What read queue length does an incoming req see
system.mem_ctrls2.rdQLenPdf::4                  21681                       # What read queue length does an incoming req see
system.mem_ctrls2.rdQLenPdf::5                  22198                       # What read queue length does an incoming req see
system.mem_ctrls2.rdQLenPdf::6                  22336                       # What read queue length does an incoming req see
system.mem_ctrls2.rdQLenPdf::7                  22013                       # What read queue length does an incoming req see
system.mem_ctrls2.rdQLenPdf::8                  21299                       # What read queue length does an incoming req see
system.mem_ctrls2.rdQLenPdf::9                  20988                       # What read queue length does an incoming req see
system.mem_ctrls2.rdQLenPdf::10                 20264                       # What read queue length does an incoming req see
system.mem_ctrls2.rdQLenPdf::11                 19307                       # What read queue length does an incoming req see
system.mem_ctrls2.rdQLenPdf::12                 18141                       # What read queue length does an incoming req see
system.mem_ctrls2.rdQLenPdf::13                 17043                       # What read queue length does an incoming req see
system.mem_ctrls2.rdQLenPdf::14                 15925                       # What read queue length does an incoming req see
system.mem_ctrls2.rdQLenPdf::15                 14834                       # What read queue length does an incoming req see
system.mem_ctrls2.rdQLenPdf::16                 13815                       # What read queue length does an incoming req see
system.mem_ctrls2.rdQLenPdf::17                 12664                       # What read queue length does an incoming req see
system.mem_ctrls2.rdQLenPdf::18                 11493                       # What read queue length does an incoming req see
system.mem_ctrls2.rdQLenPdf::19                 10613                       # What read queue length does an incoming req see
system.mem_ctrls2.rdQLenPdf::20                  9777                       # What read queue length does an incoming req see
system.mem_ctrls2.rdQLenPdf::21                  9102                       # What read queue length does an incoming req see
system.mem_ctrls2.rdQLenPdf::22                  8493                       # What read queue length does an incoming req see
system.mem_ctrls2.rdQLenPdf::23                  7971                       # What read queue length does an incoming req see
system.mem_ctrls2.rdQLenPdf::24                  7253                       # What read queue length does an incoming req see
system.mem_ctrls2.rdQLenPdf::25                  6843                       # What read queue length does an incoming req see
system.mem_ctrls2.rdQLenPdf::26                  6600                       # What read queue length does an incoming req see
system.mem_ctrls2.rdQLenPdf::27                  6217                       # What read queue length does an incoming req see
system.mem_ctrls2.rdQLenPdf::28                  5869                       # What read queue length does an incoming req see
system.mem_ctrls2.rdQLenPdf::29                  5737                       # What read queue length does an incoming req see
system.mem_ctrls2.rdQLenPdf::30                  5981                       # What read queue length does an incoming req see
system.mem_ctrls2.rdQLenPdf::31                103333                       # What read queue length does an incoming req see
system.mem_ctrls2.wrQLenPdf::0                  41986                       # What write queue length does an incoming req see
system.mem_ctrls2.wrQLenPdf::1                  45385                       # What write queue length does an incoming req see
system.mem_ctrls2.wrQLenPdf::2                  47548                       # What write queue length does an incoming req see
system.mem_ctrls2.wrQLenPdf::3                  49404                       # What write queue length does an incoming req see
system.mem_ctrls2.wrQLenPdf::4                  50645                       # What write queue length does an incoming req see
system.mem_ctrls2.wrQLenPdf::5                  18536                       # What write queue length does an incoming req see
system.mem_ctrls2.wrQLenPdf::6                  19199                       # What write queue length does an incoming req see
system.mem_ctrls2.wrQLenPdf::7                  37771                       # What write queue length does an incoming req see
system.mem_ctrls2.bytesPerActivate::samples       293441                       # Bytes accessed per row activation
system.mem_ctrls2.bytesPerActivate::mean   220.084310                       # Bytes accessed per row activation
system.mem_ctrls2.bytesPerActivate::gmean   166.422478                       # Bytes accessed per row activation
system.mem_ctrls2.bytesPerActivate::stdev   167.412914                       # Bytes accessed per row activation
system.mem_ctrls2.bytesPerActivate::0-127        88348     30.11%     30.11% # Bytes accessed per row activation
system.mem_ctrls2.bytesPerActivate::128-255        84723     28.87%     58.98% # Bytes accessed per row activation
system.mem_ctrls2.bytesPerActivate::256-383        73294     24.98%     83.96% # Bytes accessed per row activation
system.mem_ctrls2.bytesPerActivate::384-511        21553      7.34%     91.30% # Bytes accessed per row activation
system.mem_ctrls2.bytesPerActivate::512-639        16979      5.79%     97.09% # Bytes accessed per row activation
system.mem_ctrls2.bytesPerActivate::640-767         4113      1.40%     98.49% # Bytes accessed per row activation
system.mem_ctrls2.bytesPerActivate::768-895         2313      0.79%     99.28% # Bytes accessed per row activation
system.mem_ctrls2.bytesPerActivate::896-1023         1581      0.54%     99.82% # Bytes accessed per row activation
system.mem_ctrls2.bytesPerActivate::1024-1151          537      0.18%    100.00% # Bytes accessed per row activation
system.mem_ctrls2.bytesPerActivate::total       293441                       # Bytes accessed per row activation
system.mem_ctrls2.rdPerTurnAround::samples        44470                       # Reads before turning the bus around for writes
system.mem_ctrls2.rdPerTurnAround::mean     15.710389                       # Reads before turning the bus around for writes
system.mem_ctrls2.rdPerTurnAround::stdev    37.645182                       # Reads before turning the bus around for writes
system.mem_ctrls2.rdPerTurnAround::0-127        44110     99.19%     99.19% # Reads before turning the bus around for writes
system.mem_ctrls2.rdPerTurnAround::128-255          249      0.56%     99.75% # Reads before turning the bus around for writes
system.mem_ctrls2.rdPerTurnAround::256-383           53      0.12%     99.87% # Reads before turning the bus around for writes
system.mem_ctrls2.rdPerTurnAround::384-511           22      0.05%     99.92% # Reads before turning the bus around for writes
system.mem_ctrls2.rdPerTurnAround::512-639           14      0.03%     99.95% # Reads before turning the bus around for writes
system.mem_ctrls2.rdPerTurnAround::640-767            7      0.02%     99.97% # Reads before turning the bus around for writes
system.mem_ctrls2.rdPerTurnAround::768-895            6      0.01%     99.98% # Reads before turning the bus around for writes
system.mem_ctrls2.rdPerTurnAround::896-1023            2      0.00%     99.98% # Reads before turning the bus around for writes
system.mem_ctrls2.rdPerTurnAround::1152-1279            2      0.00%     99.99% # Reads before turning the bus around for writes
system.mem_ctrls2.rdPerTurnAround::1280-1407            2      0.00%     99.99% # Reads before turning the bus around for writes
system.mem_ctrls2.rdPerTurnAround::1536-1663            1      0.00%    100.00% # Reads before turning the bus around for writes
system.mem_ctrls2.rdPerTurnAround::1792-1919            1      0.00%    100.00% # Reads before turning the bus around for writes
system.mem_ctrls2.rdPerTurnAround::2816-2943            1      0.00%    100.00% # Reads before turning the bus around for writes
system.mem_ctrls2.rdPerTurnAround::total        44470                       # Reads before turning the bus around for writes
system.mem_ctrls2.wrPerTurnAround::samples        44470                       # Writes before turning the bus around for reads
system.mem_ctrls2.wrPerTurnAround::mean      6.981651                       # Writes before turning the bus around for reads
system.mem_ctrls2.wrPerTurnAround::gmean     6.357877                       # Writes before turning the bus around for reads
system.mem_ctrls2.wrPerTurnAround::stdev     3.525861                       # Writes before turning the bus around for reads
system.mem_ctrls2.wrPerTurnAround::4-7          33188     74.63%     74.63% # Writes before turning the bus around for reads
system.mem_ctrls2.wrPerTurnAround::8-11          4764     10.71%     85.34% # Writes before turning the bus around for reads
system.mem_ctrls2.wrPerTurnAround::12-15         3330      7.49%     92.83% # Writes before turning the bus around for reads
system.mem_ctrls2.wrPerTurnAround::16-19         3188      7.17%    100.00% # Writes before turning the bus around for reads
system.mem_ctrls2.wrPerTurnAround::total        44470                       # Writes before turning the bus around for reads
system.mem_ctrls2.totQLat                 83816473971                       # Total ticks spent queuing
system.mem_ctrls2.totMemAccLat            96916030221                       # Total ticks spent from burst creation until serviced by the DRAM
system.mem_ctrls2.totBusLat                3493215000                       # Total ticks spent in databus transfers
system.mem_ctrls2.avgQLat                   119970.39                       # Average queueing delay per DRAM burst
system.mem_ctrls2.avgBusLat                   5000.00                       # Average bus latency per DRAM burst
system.mem_ctrls2.avgMemAccLat              138720.39                       # Average memory access latency per DRAM burst
system.mem_ctrls2.avgRdBW                      373.55                       # Average DRAM read bandwidth in MiByte/s
system.mem_ctrls2.avgWrBW                      166.01                       # Average achieved write bandwidth in MiByte/s
system.mem_ctrls2.avgRdBWSys                   373.67                       # Average system read bandwidth in MiByte/s
system.mem_ctrls2.avgWrBWSys                   166.01                       # Average system write bandwidth in MiByte/s
system.mem_ctrls2.peakBW                     12800.00                       # Theoretical peak bandwidth in MiByte/s
system.mem_ctrls2.busUtil                        4.22                       # Data bus utilization in percentage
system.mem_ctrls2.busUtilRead                    2.92                       # Data bus utilization in percentage for reads
system.mem_ctrls2.busUtilWrite                   1.30                       # Data bus utilization in percentage for writes
system.mem_ctrls2.avgRdQLen                      1.95                       # Average read queue length when enqueuing
system.mem_ctrls2.avgWrQLen                      3.05                       # Average write queue length when enqueuing
system.mem_ctrls2.readRowHits                  534853                       # Number of row buffer hits during reads
system.mem_ctrls2.writeRowHits                 180808                       # Number of row buffer hits during writes
system.mem_ctrls2.readRowHitRate                76.56                       # Row buffer hit rate for reads
system.mem_ctrls2.writeRowHitRate               58.24                       # Row buffer hit rate for writes
system.mem_ctrls2.avgGap                    118589.90                       # Average gap between requests
system.mem_ctrls2.pageHitRate                   70.92                       # Row buffer hit rate, read and write combined
system.mem_ctrls2.memoryStateTime::IDLE   20853105000                       # Time in different power states
system.mem_ctrls2.memoryStateTime::REF     3996720000                       # Time in different power states
system.mem_ctrls2.memoryStateTime::PRE_PDN            0                       # Time in different power states
system.mem_ctrls2.memoryStateTime::ACT    94840735750                       # Time in different power states
system.mem_ctrls2.memoryStateTime::ACT_PDN            0                       # Time in different power states
system.mem_ctrls2.actEnergy::0             1115901360                       # Energy for activate commands per rank (pJ)
system.mem_ctrls2.actEnergy::1             1101854880                       # Energy for activate commands per rank (pJ)
system.mem_ctrls2.preEnergy::0              608874750                       # Energy for precharge commands per rank (pJ)
system.mem_ctrls2.preEnergy::1              601210500                       # Energy for precharge commands per rank (pJ)
system.mem_ctrls2.readEnergy::0            2733198000                       # Energy for read commands per rank (pJ)
system.mem_ctrls2.readEnergy::1            2714891400                       # Energy for read commands per rank (pJ)
system.mem_ctrls2.writeEnergy::0           1009933920                       # Energy for write commands per rank (pJ)
system.mem_ctrls2.writeEnergy::1           1001412720                       # Energy for write commands per rank (pJ)
system.mem_ctrls2.refreshEnergy::0         7817584320                       # Energy for refresh commands per rank (pJ)
system.mem_ctrls2.refreshEnergy::1         7817584320                       # Energy for refresh commands per rank (pJ)
system.mem_ctrls2.actBackEnergy::0        48373482915                       # Energy for active background per rank (pJ)
system.mem_ctrls2.actBackEnergy::1        47862685395                       # Energy for active background per rank (pJ)
system.mem_ctrls2.preBackEnergy::0        29381448750                       # Energy for precharge background per rank (pJ)
system.mem_ctrls2.preBackEnergy::1        29829516750                       # Energy for precharge background per rank (pJ)
system.mem_ctrls2.totalEnergy::0          91040424015                       # Total energy per rank (pJ)
system.mem_ctrls2.totalEnergy::1          90929155965                       # Total energy per rank (pJ)
system.mem_ctrls2.averagePower::0          760.631695                       # Core power per rank (mW)
system.mem_ctrls2.averagePower::1          759.702064                       # Core power per rank (mW)
system.mem_ctrls3.bytes_read::ruby.dir_cntrl3     44743168                       # Number of bytes read from this memory
system.mem_ctrls3.bytes_read::total          44743168                       # Number of bytes read from this memory
system.mem_ctrls3.bytes_written::ruby.dir_cntrl3     19874560                       # Number of bytes written to this memory
system.mem_ctrls3.bytes_written::total       19874560                       # Number of bytes written to this memory
system.mem_ctrls3.num_reads::ruby.dir_cntrl3       699112                       # Number of read requests responded to by this memory
system.mem_ctrls3.num_reads::total             699112                       # Number of read requests responded to by this memory
system.mem_ctrls3.num_writes::ruby.dir_cntrl3       310540                       # Number of write requests responded to by this memory
system.mem_ctrls3.num_writes::total            310540                       # Number of write requests responded to by this memory
system.mem_ctrls3.bw_read::ruby.dir_cntrl3    373803981                       # Total read bandwidth from this memory (bytes/s)
system.mem_ctrls3.bw_read::total            373803981                       # Total read bandwidth from this memory (bytes/s)
system.mem_ctrls3.bw_write::ruby.dir_cntrl3    166040761                       # Write bandwidth from this memory (bytes/s)
system.mem_ctrls3.bw_write::total           166040761                       # Write bandwidth from this memory (bytes/s)
system.mem_ctrls3.bw_total::ruby.dir_cntrl3    539844741                       # Total bandwidth to/from this memory (bytes/s)
system.mem_ctrls3.bw_total::total           539844741                       # Total bandwidth to/from this memory (bytes/s)
system.mem_ctrls3.readReqs                     699112                       # Number of read requests accepted
system.mem_ctrls3.writeReqs                    310540                       # Number of write requests accepted
system.mem_ctrls3.readBursts                   699112                       # Number of DRAM read bursts, including those serviced by the write queue
system.mem_ctrls3.writeBursts                  310540                       # Number of DRAM write bursts, including those merged in the write queue
system.mem_ctrls3.bytesReadDRAM              44727552                       # Total number of bytes read from DRAM
system.mem_ctrls3.bytesReadWrQ                  15616                       # Total number of bytes read from write queue
system.mem_ctrls3.bytesWritten               19874304                       # Total number of bytes written to DRAM
system.mem_ctrls3.bytesReadSys               44743168                       # Total read bytes from the system interface side
system.mem_ctrls3.bytesWrittenSys            19874560                       # Total written bytes from the system interface side
system.mem_ctrls3.servicedByWrQ                   244                       # Number of DRAM read bursts serviced by the write queue
system.mem_ctrls3.mergedWrBursts                    0                       # Number of DRAM write bursts merged with an existing one
system.mem_ctrls3.neitherReadNorWriteReqs            0                       # Number of requests that are neither read nor write
system.mem_ctrls3.perBankRdBursts::0            43893                       # Per bank write bursts
system.mem_ctrls3.perBankRdBursts::1            43705                       # Per bank write bursts
system.mem_ctrls3.perBankRdBursts::2            43288                       # Per bank write bursts
system.mem_ctrls3.perBankRdBursts::3            43600                       # Per bank write bursts
system.mem_ctrls3.perBankRdBursts::4            43672                       # Per bank write bursts
system.mem_ctrls3.perBankRdBursts::5            43466                       # Per bank write bursts
system.mem_ctrls3.perBankRdBursts::6            44948                       # Per bank write bursts
system.mem_ctrls3.perBankRdBursts::7            43864                       # Per bank write bursts
system.mem_ctrls3.perBankRdBursts::8            43415                       # Per bank write bursts
system.mem_ctrls3.perBankRdBursts::9            43480                       # Per bank write bursts
system.mem_ctrls3.perBankRdBursts::10           43326                       # Per bank write bursts
system.mem_ctrls3.perBankRdBursts::11           43612                       # Per bank write bursts
system.mem_ctrls3.perBankRdBursts::12           43373                       # Per bank write bursts
system.mem_ctrls3.perBankRdBursts::13           43173                       # Per bank write bursts
system.mem_ctrls3.perBankRdBursts::14           44214                       # Per bank write bursts
system.mem_ctrls3.perBankRdBursts::15           43839                       # Per bank write bursts
system.mem_ctrls3.perBankWrBursts::0            19428                       # Per bank write bursts
system.mem_ctrls3.perBankWrBursts::1            19392                       # Per bank write bursts
system.mem_ctrls3.perBankWrBursts::2            19463                       # Per bank write bursts
system.mem_ctrls3.perBankWrBursts::3            19477                       # Per bank write bursts
system.mem_ctrls3.perBankWrBursts::4            19530                       # Per bank write bursts
system.mem_ctrls3.perBankWrBursts::5            19510                       # Per bank write bursts
system.mem_ctrls3.perBankWrBursts::6            19551                       # Per bank write bursts
system.mem_ctrls3.perBankWrBursts::7            19546                       # Per bank write bursts
system.mem_ctrls3.perBankWrBursts::8            19335                       # Per bank write bursts
system.mem_ctrls3.perBankWrBursts::9            19416                       # Per bank write bursts
system.mem_ctrls3.perBankWrBursts::10           19301                       # Per bank write bursts
system.mem_ctrls3.perBankWrBursts::11           19321                       # Per bank write bursts
system.mem_ctrls3.perBankWrBursts::12           19287                       # Per bank write bursts
system.mem_ctrls3.perBankWrBursts::13           19275                       # Per bank write bursts
system.mem_ctrls3.perBankWrBursts::14           19361                       # Per bank write bursts
system.mem_ctrls3.perBankWrBursts::15           19343                       # Per bank write bursts
system.mem_ctrls3.numRdRetry                   100103                       # Number of times read queue was full causing retry
system.mem_ctrls3.numWrRetry                    22620                       # Number of times write queue was full causing retry
system.mem_ctrls3.totGap                 119695852500                       # Total gap between requests
system.mem_ctrls3.readPktSize::0                    0                       # Read request sizes (log2)
system.mem_ctrls3.readPktSize::1                    0                       # Read request sizes (log2)
system.mem_ctrls3.readPktSize::2                    0                       # Read request sizes (log2)
system.mem_ctrls3.readPktSize::3                    0                       # Read request sizes (log2)
system.mem_ctrls3.readPktSize::4                    0                       # Read request sizes (log2)
system.mem_ctrls3.readPktSize::5                    0                       # Read request sizes (log2)
system.mem_ctrls3.readPktSize::6               699112                       # Read request sizes (log2)
system.mem_ctrls3.writePktSize::0                   0                       # Write request sizes (log2)
system.mem_ctrls3.writePktSize::1                   0                       # Write request sizes (log2)
system.mem_ctrls3.writePktSize::2                   0                       # Write request sizes (log2)
system.mem_ctrls3.writePktSize::3                   0                       # Write request sizes (log2)
[...]
system.ruby.L2Cache_Controller.MT_MB.Exclusive_Unblock::total      4003130                      
system.ruby.L2Cache_Controller.MT_IIB.L1_GETS |           8      3.85%      3.85% |           8      3.85%      7.69% |          17      8.17%     15.87% |           5      2.40%     18.27% |           8      3.85%     22.12% |           4      1.92%     24.04% |          11      5.29%     29.33% |           3      1.44%     30.77% |          11      5.29%     36.06% |          11      5.29%     41.35% |          13      6.25%     47.60% |           2      0.96%     48.56% |           4      1.92%     50.48% |           2      0.96%     51.44% |          11      5.29%     56.73% |           8      3.85%     60.58% |          11      5.29%     65.87% |           5      2.40%     68.27% |          11      5.29%     73.56% |           2      0.96%     74.52% |           5      2.40%     76.92% |           2      0.96%     77.88% |           3      1.44%     79.33% |           4      1.92%     81.25% |           5      2.40%     83.65% |           0      0.00%     83.65% |          13      6.25%     89.90% |           7      3.37%     93.27% |           6      2.88%     96.15% |           2      0.96%     97.12% |           6      2.88%    100.00% |           0      0.00%    100.00%
system.ruby.L2Cache_Controller.MT_IIB.L1_GETS::total          208                      
system.ruby.L2Cache_Controller.MT_IIB.L1_PUTX |          17      2.60%      2.60% |          25      3.83%      6.43% |           9      1.38%      7.81% |          19      2.91%     10.72% |          20      3.06%     13.78% |          26      3.98%     17.76% |          17      2.60%     20.37% |          23      3.52%     23.89% |          20      3.06%     26.95% |          35      5.36%     32.31% |          29      4.44%     36.75% |          28      4.29%     41.04% |          20      3.06%     44.10% |          20      3.06%     47.17% |          25      3.83%     51.00% |          20      3.06%     54.06% |           7      1.07%     55.13% |          23      3.52%     58.65% |          23      3.52%     62.17% |          19      2.91%     65.08% |          23      3.52%     68.61% |          11      1.68%     70.29% |          27      4.13%     74.43% |          19      2.91%     77.34% |          17      2.60%     79.94% |          25      3.83%     83.77% |          20      3.06%     86.83% |          18      2.76%     89.59% |          18      2.76%     92.34% |          10      1.53%     93.87% |          22      3.37%     97.24% |          18      2.76%    100.00%
system.ruby.L2Cache_Controller.MT_IIB.L1_PUTX::total          653                      
system.ruby.L2Cache_Controller.MT_IIB.WB_Data |           0      0.00%      0.00% |           0      0.00%      0.00% |           0      0.00%      0.00% |           0      0.00%      0.00% |           0      0.00%      0.00% |           0      0.00%      0.00% |           0      0.00%      0.00% |           0      0.00%      0.00% |           0      0.00%      0.00% |           0      0.00%      0.00% |           0      0.00%      0.00% |           0      0.00%      0.00% |           0      0.00%      0.00% |           0      0.00%      0.00% |           0      0.00%      0.00% |           0      0.00%      0.00% |           0      0.00%      0.00% |           0      0.00%      0.00% |           0      0.00%      0.00% |           0      0.00%      0.00% |           0      0.00%      0.00% |           2     40.00%     40.00% |           0      0.00%     40.00% |           0      0.00%     40.00% |           0      0.00%     40.00% |           0      0.00%     40.00% |           1     20.00%     60.00% |           0      0.00%     60.00% |           0      0.00%     60.00% |           0      0.00%     60.00% |           0      0.00%     60.00% |           2     40.00%    100.00%
system.ruby.L2Cache_Controller.MT_IIB.WB_Data::total            5                      
system.ruby.L2Cache_Controller.MT_IIB.WB_Data_clean |        1992      3.35%      3.35% |        1964      3.30%      6.65% |        1997      3.36%     10.01% |        2056      3.46%     13.47% |        2129      3.58%     17.04% |        2125      3.57%     20.62% |        2064      3.47%     24.09% |        1985      3.34%     27.42% |        1835      3.09%     30.51% |        1757      2.95%     33.46% |        1857      3.12%     36.59% |        1867      3.14%     39.72% |        1936      3.25%     42.98% |        1933      3.25%     46.23% |        1782      3.00%     49.23% |        1881      3.16%     52.39% |        1883      3.17%     55.55% |        1783      3.00%     58.55% |        1954      3.29%     61.84% |        1789      3.01%     64.84% |        1818      3.06%     67.90% |        1695      2.85%     70.75% |        1761      2.96%     73.71% |        1624      2.73%     76.44% |        1732      2.91%     79.35% |        1713      2.88%     82.23% |        1731      2.91%     85.14% |        1700      2.86%     88.00% |        1838      3.09%     91.09% |        1760      2.96%     94.05% |        1791      3.01%     97.06% |        1747      2.94%    100.00%
system.ruby.L2Cache_Controller.MT_IIB.WB_Data_clean::total        59479                      
system.ruby.L2Cache_Controller.MT_IIB.Unblock |          79      1.55%      1.55% |          81      1.59%      3.14% |         111      2.18%      5.33% |         131      2.57%      7.90% |         111      2.18%     10.08% |         109      2.14%     12.22% |         135      2.65%     14.88% |         111      2.18%     17.06% |         211      4.15%     21.20% |         187      3.67%     24.88% |         251      4.93%     29.81% |         210      4.13%     33.94% |         170      3.34%     37.28% |         198      3.89%     41.17% |         329      6.46%     47.63% |         182      3.58%     51.21% |         158      3.10%     54.31% |         154      3.03%     57.34% |          93      1.83%     59.17% |         169      3.32%     62.49% |         166      3.26%     65.75% |         157      3.09%     68.83% |         204      4.01%     72.84% |         236      4.64%     77.48% |         196      3.85%     81.33% |         160      3.14%     84.48% |         133      2.61%     87.09% |         179      3.52%     90.61% |         124      2.44%     93.04% |         134      2.63%     95.68% |         118      2.32%     98.00% |         102      2.00%    100.00%
system.ruby.L2Cache_Controller.MT_IIB.Unblock::total         5089                      
system.ruby.L2Cache_Controller.MT_IB.L1_GETS |           0      0.00%      0.00% |           0      0.00%      0.00% |           0      0.00%      0.00% |           0      0.00%      0.00% |           0      0.00%      0.00% |           0      0.00%      0.00% |           0      0.00%      0.00% |           0      0.00%      0.00% |           0      0.00%      0.00% |           0      0.00%      0.00% |           1    100.00%    100.00% |           0      0.00%    100.00% |           0      0.00%    100.00% |           0      0.00%    100.00% |           0      0.00%    100.00% |           0      0.00%    100.00% |           0      0.00%    100.00% |           0      0.00%    100.00% |           0      0.00%    100.00% |           0      0.00%    100.00% |           0      0.00%    100.00% |           0      0.00%    100.00% |           0      0.00%    100.00% |           0      0.00%    100.00% |           0      0.00%    100.00% |           0      0.00%    100.00% |           0      0.00%    100.00% |           0      0.00%    100.00% |           0      0.00%    100.00% |           0      0.00%    100.00% |           0      0.00%    100.00% |           0      0.00%    100.00%
system.ruby.L2Cache_Controller.MT_IB.L1_GETS::total            1                      
system.ruby.L2Cache_Controller.MT_IB.L1_PUTX |           0      0.00%      0.00% |           0      0.00%      0.00% |           0      0.00%      0.00% |           0      0.00%      0.00% |           0      0.00%      0.00% |           0      0.00%      0.00% |           0      0.00%      0.00% |           0      0.00%      0.00% |           2     40.00%     40.00% |           0      0.00%     40.00% |           1     20.00%     60.00% |           0      0.00%     60.00% |           0      0.00%     60.00% |           0      0.00%     60.00% |           0      0.00%     60.00% |           0      0.00%     60.00% |           1     20.00%     80.00% |           0      0.00%     80.00% |           0      0.00%     80.00% |           0      0.00%     80.00% |           0      0.00%     80.00% |           0      0.00%     80.00% |           0      0.00%     80.00% |           0      0.00%     80.00% |           1     20.00%    100.00% |           0      0.00%    100.00% |           0      0.00%    100.00% |           0      0.00%    100.00% |           0      0.00%    100.00% |           0      0.00%    100.00% |           0      0.00%    100.00% |           0      0.00%    100.00%
system.ruby.L2Cache_Controller.MT_IB.L1_PUTX::total            5                      
system.ruby.L2Cache_Controller.MT_IB.WB_Data_clean |          79      1.55%      1.55% |          81      1.59%      3.14% |         111      2.18%      5.33% |         131      2.57%      7.90% |         111      2.18%     10.08% |         109      2.14%     12.22% |         135      2.65%     14.88% |         111      2.18%     17.06% |         211      4.15%     21.20% |         187      3.67%     24.88% |         251      4.93%     29.81% |         210      4.13%     33.94% |         170      3.34%     37.28% |         198      3.89%     41.17% |         329      6.46%     47.63% |         182      3.58%     51.21% |         158      3.10%     54.31% |         154      3.03%     57.34% |          93      1.83%     59.17% |         169      3.32%     62.49% |         166      3.26%     65.75% |         157      3.09%     68.83% |         204      4.01%     72.84% |         236      4.64%     77.48% |         196      3.85%     81.33% |         160      3.14%     84.48% |         133      2.61%     87.09% |         179      3.52%     90.61% |         124      2.44%     93.04% |         134      2.63%     95.68% |         118      2.32%     98.00% |         102      2.00%    100.00%
system.ruby.L2Cache_Controller.MT_IB.WB_Data_clean::total         5089                      
system.ruby.L2Cache_Controller.MT_SB.L1_GETS |           0      0.00%      0.00% |           2      7.69%      7.69% |           0      0.00%      7.69% |           0      0.00%      7.69% |           1      3.85%     11.54% |           0      0.00%     11.54% |           2      7.69%     19.23% |           0      0.00%     19.23% |           0      0.00%     19.23% |           1      3.85%     23.08% |           3     11.54%     34.62% |           0      0.00%     34.62% |           4     15.38%     50.00% |           0      0.00%     50.00% |           1      3.85%     53.85% |           1      3.85%     57.69% |           2      7.69%     65.38% |           0      0.00%     65.38% |           1      3.85%     69.23% |           0      0.00%     69.23% |           0      0.00%     69.23% |           0      0.00%     69.23% |           4     15.38%     84.62% |           0      0.00%     84.62% |           1      3.85%     88.46% |           0      0.00%     88.46% |           0      0.00%     88.46% |           1      3.85%     92.31% |           1      3.85%     96.15% |           0      0.00%     96.15% |           1      3.85%    100.00% |           0      0.00%    100.00%
system.ruby.L2Cache_Controller.MT_SB.L1_GETS::total           26                      
system.ruby.L2Cache_Controller.MT_SB.L1_PUTX |           1      3.12%      3.12% |           1      3.12%      6.25% |           2      6.25%     12.50% |           2      6.25%     18.75% |           0      0.00%     18.75% |           0      0.00%     18.75% |           0      0.00%     18.75% |           0      0.00%     18.75% |           2      6.25%     25.00% |           0      0.00%     25.00% |           0      0.00%     25.00% |           1      3.12%     28.12% |           2      6.25%     34.38% |           1      3.12%     37.50% |           2      6.25%     43.75% |           0      0.00%     43.75% |           2      6.25%     50.00% |           2      6.25%     56.25% |           1      3.12%     59.38% |           0      0.00%     59.38% |           0      0.00%     59.38% |           1      3.12%     62.50% |           1      3.12%     65.62% |           0      0.00%     65.62% |           5     15.62%     81.25% |           0      0.00%     81.25% |           1      3.12%     84.38% |           0      0.00%     84.38% |           2      6.25%     90.62% |           0      0.00%     90.62% |           2      6.25%     96.88% |           1      3.12%    100.00%
system.ruby.L2Cache_Controller.MT_SB.L1_PUTX::total           32                      
system.ruby.L2Cache_Controller.MT_SB.Unblock |        1992      3.35%      3.35% |        1964      3.30%      6.65% |        1997      3.36%     10.01% |        2056      3.46%     13.46% |        2129      3.58%     17.04% |        2125      3.57%     20.62% |        2064      3.47%     24.09% |        1985      3.34%     27.42% |        1835      3.08%     30.51% |        1757      2.95%     33.46% |        1857      3.12%     36.58% |        1867      3.14%     39.72% |        1936      3.25%     42.98% |        1933      3.25%     46.23% |        1782      3.00%     49.22% |        1881      3.16%     52.38% |        1883      3.17%     55.55% |        1783      3.00%     58.55% |        1954      3.28%     61.83% |        1789      3.01%     64.84% |        1818      3.06%     67.90% |        1697      2.85%     70.75% |        1761      2.96%     73.71% |        1624      2.73%     76.44% |        1732      2.91%     79.35% |        1713      2.88%     82.23% |        1732      2.91%     85.14% |        1700      2.86%     88.00% |        1838      3.09%     91.09% |        1760      2.96%     94.05% |        1791      3.01%     97.06% |        1749      2.94%    100.00%
system.ruby.L2Cache_Controller.MT_SB.Unblock::total        59484                      
system.ruby.SimicsNetworkPortInterface_Controller.MessageSend |      402257     20.46%     20.46% |      983258     50.00%     70.46% |       35849      1.82%     72.28% |       36730      1.87%     74.15% |       36321      1.85%     75.99% |       37239      1.89%     77.89% |       36647      1.86%     79.75% |       36812      1.87%     81.62% |       35552      1.81%     83.43% |       36457      1.85%     85.28% |       35412      1.80%     87.08% |       35892      1.83%     88.91% |       36321      1.85%     90.76% |       36187      1.84%     92.60% |       35465      1.80%     94.40% |       36638      1.86%     96.26% |       36511      1.86%     98.12% |       36968      1.88%    100.00% |           0      0.00%    100.00% |           0      0.00%    100.00% |           0      0.00%    100.00% |           0      0.00%    100.00% |           0      0.00%    100.00% |           0      0.00%    100.00% |           0      0.00%    100.00% |           0      0.00%    100.00% |           0      0.00%    100.00% |           0      0.00%    100.00% |           0      0.00%    100.00% |           0      0.00%    100.00% |           0      0.00%    100.00% |           0      0.00%    100.00%
system.ruby.SimicsNetworkPortInterface_Controller.MessageSend::total      1966516                      
system.ruby.SimicsNetworkPortInterface_Controller.MessageRecv |      402257     20.46%     20.46% |      983258     50.00%     70.46% |       35849      1.82%     72.28% |       36730      1.87%     74.15% |       36321      1.85%     75.99% |       37239      1.89%     77.89% |       36647      1.86%     79.75% |       36812      1.87%     81.62% |       35552      1.81%     83.43% |       36457      1.85%     85.28% |       35412      1.80%     87.08% |       35892      1.83%     88.91% |       36321      1.85%     90.76% |       36187      1.84%     92.60% |       35465      1.80%     94.40% |       36638      1.86%     96.26% |       36511      1.86%     98.12% |       36968      1.88%    100.00% |           0      0.00%    100.00% |           0      0.00%    100.00% |           0      0.00%    100.00% |           0      0.00%    100.00% |           0      0.00%    100.00% |           0      0.00%    100.00% |           0      0.00%    100.00% |           0      0.00%    100.00% |           0      0.00%    100.00% |           0      0.00%    100.00% |           0      0.00%    100.00% |           0      0.00%    100.00% |           0      0.00%    100.00% |           0      0.00%    100.00%
system.ruby.SimicsNetworkPortInterface_Controller.MessageRecv::total      1966516                      
system.ruby.SimicsNetworkPortInterface_Controller.A.MessageSend |      402257     20.46%     20.46% |      983258     50.00%     70.46% |       35849      1.82%     72.28% |       36730      1.87%     74.15% |       36321      1.85%     75.99% |       37239      1.89%     77.89% |       36647      1.86%     79.75% |       36812      1.87%     81.62% |       35552      1.81%     83.43% |       36457      1.85%     85.28% |       35412      1.80%     87.08% |       35892      1.83%     88.91% |       36321      1.85%     90.76% |       36187      1.84%     92.60% |       35465      1.80%     94.40% |       36638      1.86%     96.26% |       36511      1.86%     98.12% |       36968      1.88%    100.00% |           0      0.00%    100.00% |           0      0.00%    100.00% |           0      0.00%    100.00% |           0      0.00%    100.00% |           0      0.00%    100.00% |           0      0.00%    100.00% |           0      0.00%    100.00% |           0      0.00%    100.00% |           0      0.00%    100.00% |           0      0.00%    100.00% |           0      0.00%    100.00% |           0      0.00%    100.00% |           0      0.00%    100.00% |           0      0.00%    100.00%
system.ruby.SimicsNetworkPortInterface_Controller.A.MessageSend::total      1966516                      
system.ruby.SimicsNetworkPortInterface_Controller.A.MessageRecv |      402257     20.46%     20.46% |      983258     50.00%     70.46% |       35849      1.82%     72.28% |       36730      1.87%     74.15% |       36321      1.85%     75.99% |       37239      1.89%     77.89% |       36647      1.86%     79.75% |       36812      1.87%     81.62% |       35552      1.81%     83.43% |       36457      1.85%     85.28% |       35412      1.80%     87.08% |       35892      1.83%     88.91% |       36321      1.85%     90.76% |       36187      1.84%     92.60% |       35465      1.80%     94.40% |       36638      1.86%     96.26% |       36511      1.86%     98.12% |       36968      1.88%    100.00% |           0      0.00%    100.00% |           0      0.00%    100.00% |           0      0.00%    100.00% |           0      0.00%    100.00% |           0      0.00%    100.00% |           0      0.00%    100.00% |           0      0.00%    100.00% |           0      0.00%    100.00% |           0      0.00%    100.00% |           0      0.00%    100.00% |           0      0.00%    100.00% |           0      0.00%    100.00% |           0      0.00%    100.00% |           0      0.00%    100.00%
system.ruby.SimicsNetworkPortInterface_Controller.A.MessageRecv::total      1966516                      
system.switch_cpus.kern.inst.arm                    0                       # number of arm instructions executed
system.switch_cpus.kern.inst.quiesce                0                       # number of quiesce instructions executed

---------- End Simulation Statistics   ----------
