
---------- Begin Simulation Statistics ----------
sim_seconds                                  0.055116                       # Number of seconds simulated
sim_ticks                                 55115972500                       # Number of ticks simulated
final_tick                               5231284051000                       # Number of ticks from beginning of simulation (restored from checkpoints and never reset)
sim_freq                                 1000000000000                       # Frequency of simulated ticks
host_inst_rate                                  39741                       # Simulator instruction rate (inst/s)
host_op_rate                                    72251                       # Simulator op (including micro ops) rate (op/s)
host_tick_rate                               64567743                       # Simulator tick rate (ticks/s)
host_mem_usage                                4807136                       # Number of bytes of host memory used
host_seconds                                   853.61                       # Real time elapsed on the host
sim_insts                                    33923720                       # Number of instructions simulated
sim_ops                                      61674283                       # Number of ops (including micro ops) simulated
system.voltage_domain.voltage                       1                       # Voltage in Volts
system.clk_domain.clock                           500                       # Clock period in ticks
system.mem_ctrls0.bytes_read::ruby.dir_cntrl0     14072064                       # Number of bytes read from this memory
system.mem_ctrls0.bytes_read::total          14072064                       # Number of bytes read from this memory
system.mem_ctrls0.bytes_written::ruby.dir_cntrl0      4010240                       # Number of bytes written to this memory
system.mem_ctrls0.bytes_written::total        4010240                       # Number of bytes written to this memory
system.mem_ctrls0.num_reads::ruby.dir_cntrl0       219876                       # Number of read requests responded to by this memory
system.mem_ctrls0.num_reads::total             219876                       # Number of read requests responded to by this memory
system.mem_ctrls0.num_writes::ruby.dir_cntrl0        62660                       # Number of write requests responded to by this memory
system.mem_ctrls0.num_writes::total             62660                       # Number of write requests responded to by this memory
system.mem_ctrls0.bw_read::ruby.dir_cntrl0    255317349                       # Total read bandwidth from this memory (bytes/s)
system.mem_ctrls0.bw_read::total            255317349                       # Total read bandwidth from this memory (bytes/s)
system.mem_ctrls0.bw_write::ruby.dir_cntrl0     72760033                       # Write bandwidth from this memory (bytes/s)
system.mem_ctrls0.bw_write::total            72760033                       # Write bandwidth from this memory (bytes/s)
system.mem_ctrls0.bw_total::ruby.dir_cntrl0    328077383                       # Total bandwidth to/from this memory (bytes/s)
system.mem_ctrls0.bw_total::total           328077383                       # Total bandwidth to/from this memory (bytes/s)
system.mem_ctrls0.readReqs                     219876                       # Number of read requests accepted
system.mem_ctrls0.writeReqs                     62660                       # Number of write requests accepted
system.mem_ctrls0.readBursts                   219876                       # Number of DRAM read bursts, including those serviced by the write queue
system.mem_ctrls0.writeBursts                   62660                       # Number of DRAM write bursts, including those merged in the write queue
system.mem_ctrls0.bytesReadDRAM              14070272                       # Total number of bytes read from DRAM
system.mem_ctrls0.bytesReadWrQ                   1792                       # Total number of bytes read from write queue
system.mem_ctrls0.bytesWritten                4010048                       # Total number of bytes written to DRAM
system.mem_ctrls0.bytesReadSys               14072064                       # Total read bytes from the system interface side
system.mem_ctrls0.bytesWrittenSys             4010240                       # Total written bytes from the system interface side
system.mem_ctrls0.servicedByWrQ                    28                       # Number of DRAM read bursts serviced by the write queue
system.mem_ctrls0.mergedWrBursts                    0                       # Number of DRAM write bursts merged with an existing one
system.mem_ctrls0.neitherReadNorWriteReqs            0                       # Number of requests that are neither read nor write
system.mem_ctrls0.perBankRdBursts::0            13504                       # Per bank write bursts
system.mem_ctrls0.perBankRdBursts::1            14025                       # Per bank write bursts
system.mem_ctrls0.perBankRdBursts::2            13706                       # Per bank write bursts
system.mem_ctrls0.perBankRdBursts::3            14113                       # Per bank write bursts
system.mem_ctrls0.perBankRdBursts::4            13741                       # Per bank write bursts
system.mem_ctrls0.perBankRdBursts::5            14309                       # Per bank write bursts
system.mem_ctrls0.perBankRdBursts::6            13744                       # Per bank write bursts
system.mem_ctrls0.perBankRdBursts::7            13695                       # Per bank write bursts
system.mem_ctrls0.perBankRdBursts::8            13591                       # Per bank write bursts
system.mem_ctrls0.perBankRdBursts::9            13966                       # Per bank write bursts
system.mem_ctrls0.perBankRdBursts::10           13642                       # Per bank write bursts
system.mem_ctrls0.perBankRdBursts::11           13871                       # Per bank write bursts
system.mem_ctrls0.perBankRdBursts::12           13424                       # Per bank write bursts
system.mem_ctrls0.perBankRdBursts::13           13301                       # Per bank write bursts
system.mem_ctrls0.perBankRdBursts::14           13606                       # Per bank write bursts
system.mem_ctrls0.perBankRdBursts::15           13610                       # Per bank write bursts
system.mem_ctrls0.perBankWrBursts::0             3847                       # Per bank write bursts
system.mem_ctrls0.perBankWrBursts::1             3932                       # Per bank write bursts
system.mem_ctrls0.perBankWrBursts::2             3913                       # Per bank write bursts
system.mem_ctrls0.perBankWrBursts::3             4139                       # Per bank write bursts
system.mem_ctrls0.perBankWrBursts::4             3932                       # Per bank write bursts
system.mem_ctrls0.perBankWrBursts::5             4076                       # Per bank write bursts
system.mem_ctrls0.perBankWrBursts::6             3973                       # Per bank write bursts
system.mem_ctrls0.perBankWrBursts::7             3945                       # Per bank write bursts
system.mem_ctrls0.perBankWrBursts::8             3821                       # Per bank write bursts
system.mem_ctrls0.perBankWrBursts::9             4078                       # Per bank write bursts
system.mem_ctrls0.perBankWrBursts::10            3845                       # Per bank write bursts
system.mem_ctrls0.perBankWrBursts::11            3769                       # Per bank write bursts
system.mem_ctrls0.perBankWrBursts::12            3729                       # Per bank write bursts
system.mem_ctrls0.perBankWrBursts::13            3770                       # Per bank write bursts
system.mem_ctrls0.perBankWrBursts::14            4015                       # Per bank write bursts
system.mem_ctrls0.perBankWrBursts::15            3873                       # Per bank write bursts
system.mem_ctrls0.numRdRetry                     2249                       # Number of times read queue was full causing retry
system.mem_ctrls0.numWrRetry                      879                       # Number of times write queue was full causing retry
system.mem_ctrls0.totGap                  55115481000                       # Total gap between requests
system.mem_ctrls0.readPktSize::0                    0                       # Read request sizes (log2)
system.mem_ctrls0.readPktSize::1                    0                       # Read request sizes (log2)
system.mem_ctrls0.readPktSize::2                    0                       # Read request sizes (log2)
system.mem_ctrls0.readPktSize::3                    0                       # Read request sizes (log2)
system.mem_ctrls0.readPktSize::4                    0                       # Read request sizes (log2)
system.mem_ctrls0.readPktSize::5                    0                       # Read request sizes (log2)
system.mem_ctrls0.readPktSize::6               219876                       # Read request sizes (log2)
system.mem_ctrls0.writePktSize::0                   0                       # Write request sizes (log2)
system.mem_ctrls0.writePktSize::1                   0                       # Write request sizes (log2)
system.mem_ctrls0.writePktSize::2                   0                       # Write request sizes (log2)
system.mem_ctrls0.writePktSize::3                   0                       # Write request sizes (log2)
system.mem_ctrls0.writePktSize::4                   0                       # Write request sizes (log2)
system.mem_ctrls0.writePktSize::5                   0                       # Write request sizes (log2)
system.mem_ctrls0.writePktSize::6               62660                       # Write request sizes (log2)
system.mem_ctrls0.rdQLenPdf::0                 112501                       # What read queue length does an incoming req see
system.mem_ctrls0.rdQLenPdf::1                  48509                       # What read queue length does an incoming req see
system.mem_ctrls0.rdQLenPdf::2                  29228                       # What read queue length does an incoming req see
system.mem_ctrls0.rdQLenPdf::3                  14757                       # What read queue length does an incoming req see
system.mem_ctrls0.rdQLenPdf::4                   6468                       # What read queue length does an incoming req see
system.mem_ctrls0.rdQLenPdf::5                   2741                       # What read queue length does an incoming req see
system.mem_ctrls0.rdQLenPdf::6                   1024                       # What read queue length does an incoming req see
system.mem_ctrls0.rdQLenPdf::7                    393                       # What read queue length does an incoming req see
system.mem_ctrls0.rdQLenPdf::8                    195                       # What read queue length does an incoming req see
system.mem_ctrls0.rdQLenPdf::9                    111                       # What read queue length does an incoming req see
system.mem_ctrls0.rdQLenPdf::10                    97                       # What read queue length does an incoming req see
system.mem_ctrls0.rdQLenPdf::11                    87                       # What read queue length does an incoming req see
system.mem_ctrls0.rdQLenPdf::12                    86                       # What read queue length does an incoming req see
system.mem_ctrls0.rdQLenPdf::13                   126                       # What read queue length does an incoming req see
system.mem_ctrls0.rdQLenPdf::14                   144                       # What read queue length does an incoming req see
system.mem_ctrls0.rdQLenPdf::15                   150                       # What read queue length does an incoming req see
system.mem_ctrls0.rdQLenPdf::16                   157                       # What read queue length does an incoming req see
system.mem_ctrls0.rdQLenPdf::17                   128                       # What read queue length does an incoming req see
system.mem_ctrls0.rdQLenPdf::18                    83                       # What read queue length does an incoming req see
system.mem_ctrls0.rdQLenPdf::19                    52                       # What read queue length does an incoming req see
system.mem_ctrls0.rdQLenPdf::20                    34                       # What read queue length does an incoming req see
system.mem_ctrls0.rdQLenPdf::21                    25                       # What read queue length does an incoming req see
system.mem_ctrls0.rdQLenPdf::22                    22                       # What read queue length does an incoming req see
system.mem_ctrls0.rdQLenPdf::23                    24                       # What read queue length does an incoming req see
system.mem_ctrls0.rdQLenPdf::24                    19                       # What read queue length does an incoming req see
system.mem_ctrls0.rdQLenPdf::25                    28                       # What read queue length does an incoming req see
system.mem_ctrls0.rdQLenPdf::26                    25                       # What read queue length does an incoming req see
system.mem_ctrls0.rdQLenPdf::27                    22                       # What read queue length does an incoming req see
system.mem_ctrls0.rdQLenPdf::28                    37                       # What read queue length does an incoming req see
system.mem_ctrls0.rdQLenPdf::29                    40                       # What read queue length does an incoming req see
system.mem_ctrls0.rdQLenPdf::30                    75                       # What read queue length does an incoming req see
system.mem_ctrls0.rdQLenPdf::31                  2460                       # What read queue length does an incoming req see
system.mem_ctrls0.wrQLenPdf::0                  11880                       # What write queue length does an incoming req see
system.mem_ctrls0.wrQLenPdf::1                  12134                       # What write queue length does an incoming req see
system.mem_ctrls0.wrQLenPdf::2                  12147                       # What write queue length does an incoming req see
system.mem_ctrls0.wrQLenPdf::3                  12135                       # What write queue length does an incoming req see
system.mem_ctrls0.wrQLenPdf::4                  12100                       # What write queue length does an incoming req see
system.mem_ctrls0.wrQLenPdf::5                    446                       # What write queue length does an incoming req see
system.mem_ctrls0.wrQLenPdf::6                    411                       # What write queue length does an incoming req see
system.mem_ctrls0.wrQLenPdf::7                   1407                       # What write queue length does an incoming req see
system.mem_ctrls0.bytesPerActivate::samples       111179                       # Bytes accessed per row activation
system.mem_ctrls0.bytesPerActivate::mean   162.617185                       # Bytes accessed per row activation
system.mem_ctrls0.bytesPerActivate::gmean   109.790102                       # Bytes accessed per row activation
system.mem_ctrls0.bytesPerActivate::stdev   193.254932                       # Bytes accessed per row activation
system.mem_ctrls0.bytesPerActivate::0-127        68153     61.30%     61.30% # Bytes accessed per row activation
system.mem_ctrls0.bytesPerActivate::128-255        18798     16.91%     78.21% # Bytes accessed per row activation
system.mem_ctrls0.bytesPerActivate::256-383        14810     13.32%     91.53% # Bytes accessed per row activation
system.mem_ctrls0.bytesPerActivate::384-511         2567      2.31%     93.84% # Bytes accessed per row activation
system.mem_ctrls0.bytesPerActivate::512-639         1646      1.48%     95.32% # Bytes accessed per row activation
system.mem_ctrls0.bytesPerActivate::640-767         1237      1.11%     96.43% # Bytes accessed per row activation
system.mem_ctrls0.bytesPerActivate::768-895          951      0.86%     97.29% # Bytes accessed per row activation
system.mem_ctrls0.bytesPerActivate::896-1023          985      0.89%     98.17% # Bytes accessed per row activation
system.mem_ctrls0.bytesPerActivate::1024-1151         2032      1.83%    100.00% # Bytes accessed per row activation
system.mem_ctrls0.bytesPerActivate::total       111179                       # Bytes accessed per row activation
system.mem_ctrls0.rdPerTurnAround::samples        11957                       # Reads before turning the bus around for writes
system.mem_ctrls0.rdPerTurnAround::mean     18.259430                       # Reads before turning the bus around for writes
system.mem_ctrls0.rdPerTurnAround::stdev    88.577225                       # Reads before turning the bus around for writes
system.mem_ctrls0.rdPerTurnAround::0-127        11679     97.68%     97.68% # Reads before turning the bus around for writes
system.mem_ctrls0.rdPerTurnAround::128-255          145      1.21%     98.89% # Reads before turning the bus around for writes
system.mem_ctrls0.rdPerTurnAround::256-383           45      0.38%     99.26% # Reads before turning the bus around for writes
system.mem_ctrls0.rdPerTurnAround::384-511           21      0.18%     99.44% # Reads before turning the bus around for writes
system.mem_ctrls0.rdPerTurnAround::512-639           13      0.11%     99.55% # Reads before turning the bus around for writes
system.mem_ctrls0.rdPerTurnAround::640-767           14      0.12%     99.67% # Reads before turning the bus around for writes
system.mem_ctrls0.rdPerTurnAround::768-895           13      0.11%     99.77% # Reads before turning the bus around for writes
system.mem_ctrls0.rdPerTurnAround::896-1023            6      0.05%     99.82% # Reads before turning the bus around for writes
system.mem_ctrls0.rdPerTurnAround::1024-1151            9      0.08%     99.90% # Reads before turning the bus around for writes
system.mem_ctrls0.rdPerTurnAround::1152-1279            3      0.03%     99.92% # Reads before turning the bus around for writes
system.mem_ctrls0.rdPerTurnAround::1280-1407            2      0.02%     99.94% # Reads before turning the bus around for writes
system.mem_ctrls0.rdPerTurnAround::1408-1535            1      0.01%     99.95% # Reads before turning the bus around for writes
system.mem_ctrls0.rdPerTurnAround::1536-1663            2      0.02%     99.97% # Reads before turning the bus around for writes
system.mem_ctrls0.rdPerTurnAround::1664-1791            1      0.01%     99.97% # Reads before turning the bus around for writes
system.mem_ctrls0.rdPerTurnAround::1920-2047            1      0.01%     99.98% # Reads before turning the bus around for writes
system.mem_ctrls0.rdPerTurnAround::2432-2559            1      0.01%     99.99% # Reads before turning the bus around for writes
system.mem_ctrls0.rdPerTurnAround::3968-4095            1      0.01%    100.00% # Reads before turning the bus around for writes
system.mem_ctrls0.rdPerTurnAround::total        11957                       # Reads before turning the bus around for writes
system.mem_ctrls0.wrPerTurnAround::samples        11957                       # Writes before turning the bus around for reads
system.mem_ctrls0.wrPerTurnAround::mean      5.240194                       # Writes before turning the bus around for reads
system.mem_ctrls0.wrPerTurnAround::gmean     5.153889                       # Writes before turning the bus around for reads
system.mem_ctrls0.wrPerTurnAround::stdev     1.363941                       # Writes before turning the bus around for reads
system.mem_ctrls0.wrPerTurnAround::4-7          11694     97.80%     97.80% # Writes before turning the bus around for reads
system.mem_ctrls0.wrPerTurnAround::8-11            77      0.64%     98.44% # Writes before turning the bus around for reads
system.mem_ctrls0.wrPerTurnAround::12-15           47      0.39%     98.84% # Writes before turning the bus around for reads
system.mem_ctrls0.wrPerTurnAround::16-19          139      1.16%    100.00% # Writes before turning the bus around for reads
system.mem_ctrls0.wrPerTurnAround::total        11957                       # Writes before turning the bus around for reads
system.mem_ctrls0.totQLat                  5335587562                       # Total ticks spent queuing
system.mem_ctrls0.totMemAccLat             9457737562                       # Total ticks spent from burst creation until serviced by the DRAM
system.mem_ctrls0.totBusLat                1099240000                       # Total ticks spent in databus transfers
system.mem_ctrls0.avgQLat                    24269.44                       # Average queueing delay per DRAM burst
system.mem_ctrls0.avgBusLat                   5000.00                       # Average bus latency per DRAM burst
system.mem_ctrls0.avgMemAccLat               43019.44                       # Average memory access latency per DRAM burst
system.mem_ctrls0.avgRdBW                      255.28                       # Average DRAM read bandwidth in MiByte/s
system.mem_ctrls0.avgWrBW                       72.76                       # Average achieved write bandwidth in MiByte/s
system.mem_ctrls0.avgRdBWSys                   255.32                       # Average system read bandwidth in MiByte/s
system.mem_ctrls0.avgWrBWSys                    72.76                       # Average system write bandwidth in MiByte/s
system.mem_ctrls0.peakBW                     12800.00                       # Theoretical peak bandwidth in MiByte/s
system.mem_ctrls0.busUtil                        2.56                       # Data bus utilization in percentage
system.mem_ctrls0.busUtilRead                    1.99                       # Data bus utilization in percentage for reads
system.mem_ctrls0.busUtilWrite                   0.57                       # Data bus utilization in percentage for writes
system.mem_ctrls0.avgRdQLen                      1.18                       # Average read queue length when enqueuing
system.mem_ctrls0.avgWrQLen                      2.86                       # Average write queue length when enqueuing
system.mem_ctrls0.readRowHits                  134381                       # Number of row buffer hits during reads
system.mem_ctrls0.writeRowHits                  36937                       # Number of row buffer hits during writes
system.mem_ctrls0.readRowHitRate                61.12                       # Row buffer hit rate for reads
system.mem_ctrls0.writeRowHitRate               58.95                       # Row buffer hit rate for writes
system.mem_ctrls0.avgGap                    195074.19                       # Average gap between requests
system.mem_ctrls0.pageHitRate                   60.64                       # Row buffer hit rate, read and write combined
system.mem_ctrls0.memoryStateTime::IDLE   10771736750                       # Time in different power states
system.mem_ctrls0.memoryStateTime::REF     1840280000                       # Time in different power states
system.mem_ctrls0.memoryStateTime::PRE_PDN            0                       # Time in different power states
system.mem_ctrls0.memoryStateTime::ACT    42499452750                       # Time in different power states
system.mem_ctrls0.memoryStateTime::ACT_PDN            0                       # Time in different power states
system.mem_ctrls0.actEnergy::0              422951760                       # Energy for activate commands per rank (pJ)
system.mem_ctrls0.actEnergy::1              417531240                       # Energy for activate commands per rank (pJ)
system.mem_ctrls0.preEnergy::0              230777250                       # Energy for precharge commands per rank (pJ)
system.mem_ctrls0.preEnergy::1              227819625                       # Energy for precharge commands per rank (pJ)
system.mem_ctrls0.readEnergy::0             864450600                       # Energy for read commands per rank (pJ)
system.mem_ctrls0.readEnergy::1             850239000                       # Energy for read commands per rank (pJ)
system.mem_ctrls0.writeEnergy::0            205785360                       # Energy for write commands per rank (pJ)
system.mem_ctrls0.writeEnergy::1            200232000                       # Energy for write commands per rank (pJ)
system.mem_ctrls0.refreshEnergy::0         3599587680                       # Energy for refresh commands per rank (pJ)
system.mem_ctrls0.refreshEnergy::1         3599587680                       # Energy for refresh commands per rank (pJ)
system.mem_ctrls0.actBackEnergy::0        22503674385                       # Energy for active background per rank (pJ)
system.mem_ctrls0.actBackEnergy::1        21980981250                       # Energy for active background per rank (pJ)
system.mem_ctrls0.preBackEnergy::0        13326737250                       # Energy for precharge background per rank (pJ)
system.mem_ctrls0.preBackEnergy::1        13785240000                       # Energy for precharge background per rank (pJ)
system.mem_ctrls0.totalEnergy::0          41153964285                       # Total energy per rank (pJ)
system.mem_ctrls0.totalEnergy::1          41061630795                       # Total energy per rank (pJ)
system.mem_ctrls0.averagePower::0          746.742252                       # Core power per rank (mW)
system.mem_ctrls0.averagePower::1          745.066853                       # Core power per rank (mW)
system.mem_ctrls1.bytes_read::ruby.dir_cntrl1     13846848                       # Number of bytes read from this memory
system.mem_ctrls1.bytes_read::total          13846848                       # Number of bytes read from this memory
system.mem_ctrls1.bytes_written::ruby.dir_cntrl1      3839936                       # Number of bytes written to this memory
system.mem_ctrls1.bytes_written::total        3839936                       # Number of bytes written to this memory
system.mem_ctrls1.num_reads::ruby.dir_cntrl1       216357                       # Number of read requests responded to by this memory
system.mem_ctrls1.num_reads::total             216357                       # Number of read requests responded to by this memory
system.mem_ctrls1.num_writes::ruby.dir_cntrl1        59999                       # Number of write requests responded to by this memory
system.mem_ctrls1.num_writes::total             59999                       # Number of write requests responded to by this memory
system.mem_ctrls1.bw_read::ruby.dir_cntrl1    251231129                       # Total read bandwidth from this memory (bytes/s)
system.mem_ctrls1.bw_read::total            251231129                       # Total read bandwidth from this memory (bytes/s)
system.mem_ctrls1.bw_write::ruby.dir_cntrl1     69670112                       # Write bandwidth from this memory (bytes/s)
system.mem_ctrls1.bw_write::total            69670112                       # Write bandwidth from this memory (bytes/s)
system.mem_ctrls1.bw_total::ruby.dir_cntrl1    320901241                       # Total bandwidth to/from this memory (bytes/s)
system.mem_ctrls1.bw_total::total           320901241                       # Total bandwidth to/from this memory (bytes/s)
system.mem_ctrls1.readReqs                     216357                       # Number of read requests accepted
system.mem_ctrls1.writeReqs                     59999                       # Number of write requests accepted
system.mem_ctrls1.readBursts                   216357                       # Number of DRAM read bursts, including those serviced by the write queue
system.mem_ctrls1.writeBursts                   59999                       # Number of DRAM write bursts, including those merged in the write queue
system.mem_ctrls1.bytesReadDRAM              13845504                       # Total number of bytes read from DRAM
system.mem_ctrls1.bytesReadWrQ                   1344                       # Total number of bytes read from write queue
system.mem_ctrls1.bytesWritten                3839744                       # Total number of bytes written to DRAM
system.mem_ctrls1.bytesReadSys               13846848                       # Total read bytes from the system interface side
system.mem_ctrls1.bytesWrittenSys             3839936                       # Total written bytes from the system interface side
system.mem_ctrls1.servicedByWrQ                    21                       # Number of DRAM read bursts serviced by the write queue
system.mem_ctrls1.mergedWrBursts                    0                       # Number of DRAM write bursts merged with an existing one
system.mem_ctrls1.neitherReadNorWriteReqs            0                       # Number of requests that are neither read nor write
system.mem_ctrls1.perBankRdBursts::0            13290                       # Per bank write bursts
system.mem_ctrls1.perBankRdBursts::1            13802                       # Per bank write bursts
system.mem_ctrls1.perBankRdBursts::2            13472                       # Per bank write bursts
system.mem_ctrls1.perBankRdBursts::3            13893                       # Per bank write bursts
system.mem_ctrls1.perBankRdBursts::4            13530                       # Per bank write bursts
system.mem_ctrls1.perBankRdBursts::5            14124                       # Per bank write bursts
system.mem_ctrls1.perBankRdBursts::6            13535                       # Per bank write bursts
system.mem_ctrls1.perBankRdBursts::7            13505                       # Per bank write bursts
system.mem_ctrls1.perBankRdBursts::8            13385                       # Per bank write bursts
system.mem_ctrls1.perBankRdBursts::9            13704                       # Per bank write bursts
system.mem_ctrls1.perBankRdBursts::10           13414                       # Per bank write bursts
system.mem_ctrls1.perBankRdBursts::11           13658                       # Per bank write bursts
system.mem_ctrls1.perBankRdBursts::12           13210                       # Per bank write bursts
system.mem_ctrls1.perBankRdBursts::13           13101                       # Per bank write bursts
system.mem_ctrls1.perBankRdBursts::14           13294                       # Per bank write bursts
system.mem_ctrls1.perBankRdBursts::15           13419                       # Per bank write bursts
system.mem_ctrls1.perBankWrBursts::0             3686                       # Per bank write bursts
system.mem_ctrls1.perBankWrBursts::1             3780                       # Per bank write bursts
system.mem_ctrls1.perBankWrBursts::2             3763                       # Per bank write bursts
system.mem_ctrls1.perBankWrBursts::3             3981                       # Per bank write bursts
system.mem_ctrls1.perBankWrBursts::4             3771                       # Per bank write bursts
system.mem_ctrls1.perBankWrBursts::5             3921                       # Per bank write bursts
system.mem_ctrls1.perBankWrBursts::6             3796                       # Per bank write bursts
system.mem_ctrls1.perBankWrBursts::7             3777                       # Per bank write bursts
system.mem_ctrls1.perBankWrBursts::8             3665                       # Per bank write bursts
system.mem_ctrls1.perBankWrBursts::9             3900                       # Per bank write bursts
system.mem_ctrls1.perBankWrBursts::10            3675                       # Per bank write bursts
system.mem_ctrls1.perBankWrBursts::11            3603                       # Per bank write bursts
system.mem_ctrls1.perBankWrBursts::12            3566                       # Per bank write bursts
system.mem_ctrls1.perBankWrBursts::13            3601                       # Per bank write bursts
system.mem_ctrls1.perBankWrBursts::14            3797                       # Per bank write bursts
system.mem_ctrls1.perBankWrBursts::15            3714                       # Per bank write bursts
system.mem_ctrls1.numRdRetry                     1608                       # Number of times read queue was full causing retry
system.mem_ctrls1.numWrRetry                      781                       # Number of times write queue was full causing retry
system.mem_ctrls1.totGap                  55115222000                       # Total gap between requests
system.mem_ctrls1.readPktSize::0                    0                       # Read request sizes (log2)
system.mem_ctrls1.readPktSize::1                    0                       # Read request sizes (log2)
system.mem_ctrls1.readPktSize::2                    0                       # Read request sizes (log2)
system.mem_ctrls1.readPktSize::3                    0                       # Read request sizes (log2)
system.mem_ctrls1.readPktSize::4                    0                       # Read request sizes (log2)
system.mem_ctrls1.readPktSize::5                    0                       # Read request sizes (log2)
system.mem_ctrls1.readPktSize::6               216357                       # Read request sizes (log2)
system.mem_ctrls1.writePktSize::0                   0                       # Write request sizes (log2)
system.mem_ctrls1.writePktSize::1                   0                       # Write request sizes (log2)
system.mem_ctrls1.writePktSize::2                   0                       # Write request sizes (log2)
system.mem_ctrls1.writePktSize::3                   0                       # Write request sizes (log2)
system.mem_ctrls1.writePktSize::4                   0                       # Write request sizes (log2)
system.mem_ctrls1.writePktSize::5                   0                       # Write request sizes (log2)
system.mem_ctrls1.writePktSize::6               59999                       # Write request sizes (log2)
system.mem_ctrls1.rdQLenPdf::0                 110666                       # What read queue length does an incoming req see
system.mem_ctrls1.rdQLenPdf::1                  48976                       # What read queue length does an incoming req see
system.mem_ctrls1.rdQLenPdf::2                  28957                       # What read queue length does an incoming req see
system.mem_ctrls1.rdQLenPdf::3                  14156                       # What read queue length does an incoming req see
system.mem_ctrls1.rdQLenPdf::4                   6057                       # What read queue length does an incoming req see
system.mem_ctrls1.rdQLenPdf::5                   2395                       # What read queue length does an incoming req see
system.mem_ctrls1.rdQLenPdf::6                    945                       # What read queue length does an incoming req see
system.mem_ctrls1.rdQLenPdf::7                    332                       # What read queue length does an incoming req see
system.mem_ctrls1.rdQLenPdf::8                    175                       # What read queue length does an incoming req see
system.mem_ctrls1.rdQLenPdf::9                    120                       # What read queue length does an incoming req see
system.mem_ctrls1.rdQLenPdf::10                   113                       # What read queue length does an incoming req see
system.mem_ctrls1.rdQLenPdf::11                   128                       # What read queue length does an incoming req see
system.mem_ctrls1.rdQLenPdf::12                   161                       # What read queue length does an incoming req see
system.mem_ctrls1.rdQLenPdf::13                   202                       # What read queue length does an incoming req see
system.mem_ctrls1.rdQLenPdf::14                   203                       # What read queue length does an incoming req see
system.mem_ctrls1.rdQLenPdf::15                   201                       # What read queue length does an incoming req see
system.mem_ctrls1.rdQLenPdf::16                   169                       # What read queue length does an incoming req see
system.mem_ctrls1.rdQLenPdf::17                   105                       # What read queue length does an incoming req see
system.mem_ctrls1.rdQLenPdf::18                    64                       # What read queue length does an incoming req see
system.mem_ctrls1.rdQLenPdf::19                    53                       # What read queue length does an incoming req see
system.mem_ctrls1.rdQLenPdf::20                    34                       # What read queue length does an incoming req see
system.mem_ctrls1.rdQLenPdf::21                    35                       # What read queue length does an incoming req see
system.mem_ctrls1.rdQLenPdf::22                    24                       # What read queue length does an incoming req see
system.mem_ctrls1.rdQLenPdf::23                    29                       # What read queue length does an incoming req see
system.mem_ctrls1.rdQLenPdf::24                    24                       # What read queue length does an incoming req see
system.mem_ctrls1.rdQLenPdf::25                    23                       # What read queue length does an incoming req see
system.mem_ctrls1.rdQLenPdf::26                    27                       # What read queue length does an incoming req see
system.mem_ctrls1.rdQLenPdf::27                    25                       # What read queue length does an incoming req see
system.mem_ctrls1.rdQLenPdf::28                    28                       # What read queue length does an incoming req see
system.mem_ctrls1.rdQLenPdf::29                    43                       # What read queue length does an incoming req see
system.mem_ctrls1.rdQLenPdf::30                    71                       # What read queue length does an incoming req see
system.mem_ctrls1.rdQLenPdf::31                  1795                       # What read queue length does an incoming req see
system.mem_ctrls1.wrQLenPdf::0                  11360                       # What write queue length does an incoming req see
system.mem_ctrls1.wrQLenPdf::1                  11618                       # What write queue length does an incoming req see
system.mem_ctrls1.wrQLenPdf::2                  11665                       # What write queue length does an incoming req see
system.mem_ctrls1.wrQLenPdf::3                  11639                       # What write queue length does an incoming req see
system.mem_ctrls1.wrQLenPdf::4                  11622                       # What write queue length does an incoming req see
system.mem_ctrls1.wrQLenPdf::5                    441                       # What write queue length does an incoming req see
system.mem_ctrls1.wrQLenPdf::6                    401                       # What write queue length does an incoming req see
system.mem_ctrls1.wrQLenPdf::7                   1253                       # What write queue length does an incoming req see
system.mem_ctrls1.bytesPerActivate::samples       106458                       # Bytes accessed per row activation
system.mem_ctrls1.bytesPerActivate::mean   166.117567                       # Bytes accessed per row activation
system.mem_ctrls1.bytesPerActivate::gmean   110.961296                       # Bytes accessed per row activation
system.mem_ctrls1.bytesPerActivate::stdev   198.915574                       # Bytes accessed per row activation
system.mem_ctrls1.bytesPerActivate::0-127        64810     60.88%     60.88% # Bytes accessed per row activation
system.mem_ctrls1.bytesPerActivate::128-255        17866     16.78%     77.66% # Bytes accessed per row activation
system.mem_ctrls1.bytesPerActivate::256-383        14289     13.42%     91.08% # Bytes accessed per row activation
system.mem_ctrls1.bytesPerActivate::384-511         2452      2.30%     93.39% # Bytes accessed per row activation
system.mem_ctrls1.bytesPerActivate::512-639         1671      1.57%     94.96% # Bytes accessed per row activation
system.mem_ctrls1.bytesPerActivate::640-767         1249      1.17%     96.13% # Bytes accessed per row activation
system.mem_ctrls1.bytesPerActivate::768-895          971      0.91%     97.04% # Bytes accessed per row activation
system.mem_ctrls1.bytesPerActivate::896-1023         1026      0.96%     98.00% # Bytes accessed per row activation
system.mem_ctrls1.bytesPerActivate::1024-1151         2124      2.00%    100.00% # Bytes accessed per row activation
system.mem_ctrls1.bytesPerActivate::total       106458                       # Bytes accessed per row activation
system.mem_ctrls1.rdPerTurnAround::samples        11444                       # Reads before turning the bus around for writes
system.mem_ctrls1.rdPerTurnAround::mean     18.741961                       # Reads before turning the bus around for writes
system.mem_ctrls1.rdPerTurnAround::stdev    90.468281                       # Reads before turning the bus around for writes
system.mem_ctrls1.rdPerTurnAround::0-127        11172     97.62%     97.62% # Reads before turning the bus around for writes
system.mem_ctrls1.rdPerTurnAround::128-255          144      1.26%     98.88% # Reads before turning the bus around for writes
system.mem_ctrls1.rdPerTurnAround::256-383           35      0.31%     99.19% # Reads before turning the bus around for writes
system.mem_ctrls1.rdPerTurnAround::384-511           23      0.20%     99.39% # Reads before turning the bus around for writes
system.mem_ctrls1.rdPerTurnAround::512-639           15      0.13%     99.52% # Reads before turning the bus around for writes
system.mem_ctrls1.rdPerTurnAround::640-767           12      0.10%     99.62% # Reads before turning the bus around for writes
system.mem_ctrls1.rdPerTurnAround::768-895           10      0.09%     99.71% # Reads before turning the bus around for writes
system.mem_ctrls1.rdPerTurnAround::896-1023           11      0.10%     99.81% # Reads before turning the bus around for writes
system.mem_ctrls1.rdPerTurnAround::1024-1151            2      0.02%     99.83% # Reads before turning the bus around for writes
system.mem_ctrls1.rdPerTurnAround::1152-1279           10      0.09%     99.91% # Reads before turning the bus around for writes
system.mem_ctrls1.rdPerTurnAround::1280-1407            2      0.02%     99.93% # Reads before turning the bus around for writes
system.mem_ctrls1.rdPerTurnAround::1408-1535            1      0.01%     99.94% # Reads before turning the bus around for writes
system.mem_ctrls1.rdPerTurnAround::1536-1663            2      0.02%     99.96% # Reads before turning the bus around for writes
system.mem_ctrls1.rdPerTurnAround::1664-1791            1      0.01%     99.97% # Reads before turning the bus around for writes
system.mem_ctrls1.rdPerTurnAround::1920-2047            1      0.01%     99.97% # Reads before turning the bus around for writes
system.mem_ctrls1.rdPerTurnAround::2304-2431            1      0.01%     99.98% # Reads before turning the bus around for writes
system.mem_ctrls1.rdPerTurnAround::2432-2559            1      0.01%     99.99% # Reads before turning the bus around for writes
system.mem_ctrls1.rdPerTurnAround::2816-2943            1      0.01%    100.00% # Reads before turning the bus around for writes
system.mem_ctrls1.rdPerTurnAround::total        11444                       # Reads before turning the bus around for writes
system.mem_ctrls1.wrPerTurnAround::samples        11444                       # Writes before turning the bus around for reads
system.mem_ctrls1.wrPerTurnAround::mean      5.242573                       # Writes before turning the bus around for reads
system.mem_ctrls1.wrPerTurnAround::gmean     5.157847                       # Writes before turning the bus around for reads
system.mem_ctrls1.wrPerTurnAround::stdev     1.338159                       # Writes before turning the bus around for reads
system.mem_ctrls1.wrPerTurnAround::4-7          11161     97.53%     97.53% # Writes before turning the bus around for reads
system.mem_ctrls1.wrPerTurnAround::8-11           113      0.99%     98.51% # Writes before turning the bus around for reads
system.mem_ctrls1.wrPerTurnAround::12-15           49      0.43%     98.94% # Writes before turning the bus around for reads
system.mem_ctrls1.wrPerTurnAround::16-19          121      1.06%    100.00% # Writes before turning the bus around for reads
system.mem_ctrls1.wrPerTurnAround::total        11444                       # Writes before turning the bus around for reads
system.mem_ctrls1.totQLat                  4987345360                       # Total ticks spent queuing
system.mem_ctrls1.totMemAccLat             9043645360                       # Total ticks spent from burst creation until serviced by the DRAM
system.mem_ctrls1.totBusLat                1081680000                       # Total ticks spent in databus transfers
system.mem_ctrls1.avgQLat                    23053.70                       # Average queueing delay per DRAM burst
system.mem_ctrls1.avgBusLat                   5000.00                       # Average bus latency per DRAM burst
system.mem_ctrls1.avgMemAccLat               41803.70                       # Average memory access latency per DRAM burst
system.mem_ctrls1.avgRdBW                      251.21                       # Average DRAM read bandwidth in MiByte/s
system.mem_ctrls1.avgWrBW                       69.67                       # Average achieved write bandwidth in MiByte/s
system.mem_ctrls1.avgRdBWSys                   251.23                       # Average system read bandwidth in MiByte/s
system.mem_ctrls1.avgWrBWSys                    69.67                       # Average system write bandwidth in MiByte/s
system.mem_ctrls1.peakBW                     12800.00                       # Theoretical peak bandwidth in MiByte/s
system.mem_ctrls1.busUtil                        2.51                       # Data bus utilization in percentage
system.mem_ctrls1.busUtilRead                    1.96                       # Data bus utilization in percentage for reads
system.mem_ctrls1.busUtilWrite                   0.54                       # Data bus utilization in percentage for writes
system.mem_ctrls1.avgRdQLen                      1.16                       # Average read queue length when enqueuing
system.mem_ctrls1.avgWrQLen                      2.91                       # Average write queue length when enqueuing
system.mem_ctrls1.readRowHits                  132789                       # Number of row buffer hits during reads
system.mem_ctrls1.writeRowHits                  37078                       # Number of row buffer hits during writes
system.mem_ctrls1.readRowHitRate                61.38                       # Row buffer hit rate for reads
system.mem_ctrls1.writeRowHitRate               61.80                       # Row buffer hit rate for writes
system.mem_ctrls1.avgGap                    199435.59                       # Average gap between requests
system.mem_ctrls1.pageHitRate                   61.47                       # Row buffer hit rate, read and write combined
system.mem_ctrls1.memoryStateTime::IDLE   11202264000                       # Time in different power states
system.mem_ctrls1.memoryStateTime::REF     1840280000                       # Time in different power states
system.mem_ctrls1.memoryStateTime::PRE_PDN            0                       # Time in different power states
system.mem_ctrls1.memoryStateTime::ACT    42069038500                       # Time in different power states
system.mem_ctrls1.memoryStateTime::ACT_PDN            0                       # Time in different power states
system.mem_ctrls1.actEnergy::0              406402920                       # Energy for activate commands per rank (pJ)
system.mem_ctrls1.actEnergy::1              398412000                       # Energy for activate commands per rank (pJ)
system.mem_ctrls1.preEnergy::0              221747625                       # Energy for precharge commands per rank (pJ)
system.mem_ctrls1.preEnergy::1              217387500                       # Energy for precharge commands per rank (pJ)
system.mem_ctrls1.readEnergy::0             851299800                       # Energy for read commands per rank (pJ)
system.mem_ctrls1.readEnergy::1             836004000                       # Energy for read commands per rank (pJ)
system.mem_ctrls1.writeEnergy::0            197478000                       # Energy for write commands per rank (pJ)
system.mem_ctrls1.writeEnergy::1            191296080                       # Energy for write commands per rank (pJ)
system.mem_ctrls1.refreshEnergy::0         3599587680                       # Energy for refresh commands per rank (pJ)
system.mem_ctrls1.refreshEnergy::1         3599587680                       # Energy for refresh commands per rank (pJ)
system.mem_ctrls1.actBackEnergy::0        22192789545                       # Energy for active background per rank (pJ)
system.mem_ctrls1.actBackEnergy::1        21410521830                       # Energy for active background per rank (pJ)
system.mem_ctrls1.preBackEnergy::0        13599443250                       # Energy for precharge background per rank (pJ)
system.mem_ctrls1.preBackEnergy::1        14285643000                       # Energy for precharge background per rank (pJ)
system.mem_ctrls1.totalEnergy::0          41068748820                       # Total energy per rank (pJ)
system.mem_ctrls1.totalEnergy::1          40938852090                       # Total energy per rank (pJ)
system.mem_ctrls1.averagePower::0          745.196010                       # Core power per rank (mW)
system.mem_ctrls1.averagePower::1          742.839023                       # Core power per rank (mW)
system.mem_ctrls2.bytes_read::ruby.dir_cntrl2     13845888                       # Number of bytes read from this memory
system.mem_ctrls2.bytes_read::total          13845888                       # Number of bytes read from this memory
system.mem_ctrls2.bytes_written::ruby.dir_cntrl2      3840576                       # Number of bytes written to this memory
system.mem_ctrls2.bytes_written::total        3840576                       # Number of bytes written to this memory
system.mem_ctrls2.num_reads::ruby.dir_cntrl2       216342                       # Number of read requests responded to by this memory
system.mem_ctrls2.num_reads::total             216342                       # Number of read requests responded to by this memory
system.mem_ctrls2.num_writes::ruby.dir_cntrl2        60009                       # Number of write requests responded to by this memory
system.mem_ctrls2.num_writes::total             60009                       # Number of write requests responded to by this memory
system.mem_ctrls2.bw_read::ruby.dir_cntrl2    251213711                       # Total read bandwidth from this memory (bytes/s)
system.mem_ctrls2.bw_read::total            251213711                       # Total read bandwidth from this memory (bytes/s)
system.mem_ctrls2.bw_write::ruby.dir_cntrl2     69681724                       # Write bandwidth from this memory (bytes/s)
system.mem_ctrls2.bw_write::total            69681724                       # Write bandwidth from this memory (bytes/s)
system.mem_ctrls2.bw_total::ruby.dir_cntrl2    320895436                       # Total bandwidth to/from this memory (bytes/s)
system.mem_ctrls2.bw_total::total           320895436                       # Total bandwidth to/from this memory (bytes/s)
system.mem_ctrls2.readReqs                     216342                       # Number of read requests accepted
system.mem_ctrls2.writeReqs                     60009                       # Number of write requests accepted
system.mem_ctrls2.readBursts                   216342                       # Number of DRAM read bursts, including those serviced by the write queue
system.mem_ctrls2.writeBursts                   60009                       # Number of DRAM write bursts, including those merged in the write queue
system.mem_ctrls2.bytesReadDRAM              13845120                       # Total number of bytes read from DRAM
system.mem_ctrls2.bytesReadWrQ                    768                       # Total number of bytes read from write queue
system.mem_ctrls2.bytesWritten                3840512                       # Total number of bytes written to DRAM
system.mem_ctrls2.bytesReadSys               13845888                       # Total read bytes from the system interface side
system.mem_ctrls2.bytesWrittenSys             3840576                       # Total written bytes from the system interface side
system.mem_ctrls2.servicedByWrQ                    12                       # Number of DRAM read bursts serviced by the write queue
system.mem_ctrls2.mergedWrBursts                    0                       # Number of DRAM write bursts merged with an existing one
system.mem_ctrls2.neitherReadNorWriteReqs            0                       # Number of requests that are neither read nor write
system.mem_ctrls2.perBankRdBursts::0            13292                       # Per bank write bursts
system.mem_ctrls2.perBankRdBursts::1            13816                       # Per bank write bursts
system.mem_ctrls2.perBankRdBursts::2            13489                       # Per bank write bursts
system.mem_ctrls2.perBankRdBursts::3            13918                       # Per bank write bursts
system.mem_ctrls2.perBankRdBursts::4            13542                       # Per bank write bursts
system.mem_ctrls2.perBankRdBursts::5            14106                       # Per bank write bursts
system.mem_ctrls2.perBankRdBursts::6            13488                       # Per bank write bursts
system.mem_ctrls2.perBankRdBursts::7            13490                       # Per bank write bursts
system.mem_ctrls2.perBankRdBursts::8            13377                       # Per bank write bursts
system.mem_ctrls2.perBankRdBursts::9            13706                       # Per bank write bursts
system.mem_ctrls2.perBankRdBursts::10           13423                       # Per bank write bursts
system.mem_ctrls2.perBankRdBursts::11           13699                       # Per bank write bursts
system.mem_ctrls2.perBankRdBursts::12           13205                       # Per bank write bursts
system.mem_ctrls2.perBankRdBursts::13           13065                       # Per bank write bursts
system.mem_ctrls2.perBankRdBursts::14           13297                       # Per bank write bursts
system.mem_ctrls2.perBankRdBursts::15           13417                       # Per bank write bursts
system.mem_ctrls2.perBankWrBursts::0             3679                       # Per bank write bursts
system.mem_ctrls2.perBankWrBursts::1             3776                       # Per bank write bursts
system.mem_ctrls2.perBankWrBursts::2             3759                       # Per bank write bursts
system.mem_ctrls2.perBankWrBursts::3             3995                       # Per bank write bursts
system.mem_ctrls2.perBankWrBursts::4             3770                       # Per bank write bursts
system.mem_ctrls2.perBankWrBursts::5             3910                       # Per bank write bursts
system.mem_ctrls2.perBankWrBursts::6             3805                       # Per bank write bursts
system.mem_ctrls2.perBankWrBursts::7             3781                       # Per bank write bursts
system.mem_ctrls2.perBankWrBursts::8             3667                       # Per bank write bursts
system.mem_ctrls2.perBankWrBursts::9             3908                       # Per bank write bursts
system.mem_ctrls2.perBankWrBursts::10            3671                       # Per bank write bursts
system.mem_ctrls2.perBankWrBursts::11            3599                       # Per bank write bursts
system.mem_ctrls2.perBankWrBursts::12            3575                       # Per bank write bursts
system.mem_ctrls2.perBankWrBursts::13            3594                       # Per bank write bursts
system.mem_ctrls2.perBankWrBursts::14            3803                       # Per bank write bursts
system.mem_ctrls2.perBankWrBursts::15            3716                       # Per bank write bursts
system.mem_ctrls2.numRdRetry                     2085                       # Number of times read queue was full causing retry
system.mem_ctrls2.numWrRetry                      702                       # Number of times write queue was full causing retry
system.mem_ctrls2.totGap                  55115255000                       # Total gap between requests
system.mem_ctrls2.readPktSize::0                    0                       # Read request sizes (log2)
system.mem_ctrls2.readPktSize::1                    0                       # Read request sizes (log2)
system.mem_ctrls2.readPktSize::2                    0                       # Read request sizes (log2)
system.mem_ctrls2.readPktSize::3                    0                       # Read request sizes (log2)
system.mem_ctrls2.readPktSize::4                    0                       # Read request sizes (log2)
system.mem_ctrls2.readPktSize::5                    0                       # Read request sizes (log2)
system.mem_ctrls2.readPktSize::6               216342                       # Read request sizes (log2)
system.mem_ctrls2.writePktSize::0                   0                       # Write request sizes (log2)
system.mem_ctrls2.writePktSize::1                   0                       # Write request sizes (log2)
system.mem_ctrls2.writePktSize::2                   0                       # Write request sizes (log2)
system.mem_ctrls2.writePktSize::3                   0                       # Write request sizes (log2)
system.mem_ctrls2.writePktSize::4                   0                       # Write request sizes (log2)
system.mem_ctrls2.writePktSize::5                   0                       # Write request sizes (log2)
system.mem_ctrls2.writePktSize::6               60009                       # Write request sizes (log2)
system.mem_ctrls2.rdQLenPdf::0                 110869                       # What read queue length does an incoming req see
system.mem_ctrls2.rdQLenPdf::1                  48640                       # What read queue length does an incoming req see
system.mem_ctrls2.rdQLenPdf::2                  28945                       # What read queue length does an incoming req see
system.mem_ctrls2.rdQLenPdf::3                  14164                       # What read queue length does an incoming req see
system.mem_ctrls2.rdQLenPdf::4                   6187                       # What read queue length does an incoming req see
system.mem_ctrls2.rdQLenPdf::5                   2360                       # What read queue length does an incoming req see
system.mem_ctrls2.rdQLenPdf::6                    864                       # What read queue length does an incoming req see
system.mem_ctrls2.rdQLenPdf::7                    342                       # What read queue length does an incoming req see
system.mem_ctrls2.rdQLenPdf::8                    183                       # What read queue length does an incoming req see
system.mem_ctrls2.rdQLenPdf::9                    105                       # What read queue length does an incoming req see
system.mem_ctrls2.rdQLenPdf::10                   102                       # What read queue length does an incoming req see
system.mem_ctrls2.rdQLenPdf::11                   108                       # What read queue length does an incoming req see
system.mem_ctrls2.rdQLenPdf::12                   104                       # What read queue length does an incoming req see
system.mem_ctrls2.rdQLenPdf::13                   138                       # What read queue length does an incoming req see
system.mem_ctrls2.rdQLenPdf::14                   141                       # What read queue length does an incoming req see
system.mem_ctrls2.rdQLenPdf::15                   159                       # What read queue length does an incoming req see
system.mem_ctrls2.rdQLenPdf::16                   173                       # What read queue length does an incoming req see
system.mem_ctrls2.rdQLenPdf::17                   102                       # What read queue length does an incoming req see
system.mem_ctrls2.rdQLenPdf::18                    73                       # What read queue length does an incoming req see
system.mem_ctrls2.rdQLenPdf::19                    41                       # What read queue length does an incoming req see
system.mem_ctrls2.rdQLenPdf::20                    35                       # What read queue length does an incoming req see
system.mem_ctrls2.rdQLenPdf::21                    25                       # What read queue length does an incoming req see
system.mem_ctrls2.rdQLenPdf::22                    25                       # What read queue length does an incoming req see
system.mem_ctrls2.rdQLenPdf::23                    31                       # What read queue length does an incoming req see
system.mem_ctrls2.rdQLenPdf::24                    18                       # What read queue length does an incoming req see
system.mem_ctrls2.rdQLenPdf::25                    21                       # What read queue length does an incoming req see
system.mem_ctrls2.rdQLenPdf::26                    25                       # What read queue length does an incoming req see
system.mem_ctrls2.rdQLenPdf::27                    23                       # What read queue length does an incoming req see
system.mem_ctrls2.rdQLenPdf::28                    19                       # What read queue length does an incoming req see
system.mem_ctrls2.rdQLenPdf::29                    32                       # What read queue length does an incoming req see
system.mem_ctrls2.rdQLenPdf::30                    57                       # What read queue length does an incoming req see
system.mem_ctrls2.rdQLenPdf::31                  2219                       # What read queue length does an incoming req see
system.mem_ctrls2.wrQLenPdf::0                  11374                       # What write queue length does an incoming req see
system.mem_ctrls2.wrQLenPdf::1                  11637                       # What write queue length does an incoming req see
system.mem_ctrls2.wrQLenPdf::2                  11632                       # What write queue length does an incoming req see
system.mem_ctrls2.wrQLenPdf::3                  11616                       # What write queue length does an incoming req see
system.mem_ctrls2.wrQLenPdf::4                  11619                       # What write queue length does an incoming req see
system.mem_ctrls2.wrQLenPdf::5                    434                       # What write queue length does an incoming req see
system.mem_ctrls2.wrQLenPdf::6                    415                       # What write queue length does an incoming req see
system.mem_ctrls2.wrQLenPdf::7                   1282                       # What write queue length does an incoming req see
system.mem_ctrls2.bytesPerActivate::samples       106293                       # Bytes accessed per row activation
system.mem_ctrls2.bytesPerActivate::mean   166.377842                       # Bytes accessed per row activation
system.mem_ctrls2.bytesPerActivate::gmean   111.109777                       # Bytes accessed per row activation
system.mem_ctrls2.bytesPerActivate::stdev   199.004452                       # Bytes accessed per row activation
system.mem_ctrls2.bytesPerActivate::0-127        64720     60.89%     60.89% # Bytes accessed per row activation
system.mem_ctrls2.bytesPerActivate::128-255        17587     16.55%     77.43% # Bytes accessed per row activation
system.mem_ctrls2.bytesPerActivate::256-383        14465     13.61%     91.04% # Bytes accessed per row activation
system.mem_ctrls2.bytesPerActivate::384-511         2493      2.35%     93.39% # Bytes accessed per row activation
system.mem_ctrls2.bytesPerActivate::512-639         1668      1.57%     94.96% # Bytes accessed per row activation
system.mem_ctrls2.bytesPerActivate::640-767         1235      1.16%     96.12% # Bytes accessed per row activation
system.mem_ctrls2.bytesPerActivate::768-895          988      0.93%     97.05% # Bytes accessed per row activation
system.mem_ctrls2.bytesPerActivate::896-1023         1005      0.95%     97.99% # Bytes accessed per row activation
system.mem_ctrls2.bytesPerActivate::1024-1151         2132      2.01%    100.00% # Bytes accessed per row activation
system.mem_ctrls2.bytesPerActivate::total       106293                       # Bytes accessed per row activation
system.mem_ctrls2.rdPerTurnAround::samples        11443                       # Reads before turning the bus around for writes
system.mem_ctrls2.rdPerTurnAround::mean     18.816919                       # Reads before turning the bus around for writes
system.mem_ctrls2.rdPerTurnAround::stdev    91.538447                       # Reads before turning the bus around for writes
system.mem_ctrls2.rdPerTurnAround::0-127        11178     97.68%     97.68% # Reads before turning the bus around for writes
system.mem_ctrls2.rdPerTurnAround::128-255          132      1.15%     98.84% # Reads before turning the bus around for writes
system.mem_ctrls2.rdPerTurnAround::256-383           43      0.38%     99.21% # Reads before turning the bus around for writes
system.mem_ctrls2.rdPerTurnAround::384-511           20      0.17%     99.39% # Reads before turning the bus around for writes
system.mem_ctrls2.rdPerTurnAround::512-639           15      0.13%     99.52% # Reads before turning the bus around for writes
system.mem_ctrls2.rdPerTurnAround::640-767            9      0.08%     99.60% # Reads before turning the bus around for writes
system.mem_ctrls2.rdPerTurnAround::768-895           13      0.11%     99.71% # Reads before turning the bus around for writes
system.mem_ctrls2.rdPerTurnAround::896-1023            9      0.08%     99.79% # Reads before turning the bus around for writes
system.mem_ctrls2.rdPerTurnAround::1024-1151            3      0.03%     99.82% # Reads before turning the bus around for writes
system.mem_ctrls2.rdPerTurnAround::1152-1279           10      0.09%     99.90% # Reads before turning the bus around for writes
system.mem_ctrls2.rdPerTurnAround::1280-1407            2      0.02%     99.92% # Reads before turning the bus around for writes
system.mem_ctrls2.rdPerTurnAround::1408-1535            3      0.03%     99.95% # Reads before turning the bus around for writes
system.mem_ctrls2.rdPerTurnAround::1536-1663            1      0.01%     99.96% # Reads before turning the bus around for writes
system.mem_ctrls2.rdPerTurnAround::1664-1791            1      0.01%     99.97% # Reads before turning the bus around for writes
system.mem_ctrls2.rdPerTurnAround::1920-2047            1      0.01%     99.97% # Reads before turning the bus around for writes
system.mem_ctrls2.rdPerTurnAround::2432-2559            1      0.01%     99.98% # Reads before turning the bus around for writes
system.mem_ctrls2.rdPerTurnAround::2560-2687            1      0.01%     99.99% # Reads before turning the bus around for writes
system.mem_ctrls2.rdPerTurnAround::2816-2943            1      0.01%    100.00% # Reads before turning the bus around for writes
system.mem_ctrls2.rdPerTurnAround::total        11443                       # Reads before turning the bus around for writes
system.mem_ctrls2.wrPerTurnAround::samples        11443                       # Writes before turning the bus around for reads
system.mem_ctrls2.wrPerTurnAround::mean      5.244079                       # Writes before turning the bus around for reads
system.mem_ctrls2.wrPerTurnAround::gmean     5.157469                       # Writes before turning the bus around for reads
system.mem_ctrls2.wrPerTurnAround::stdev     1.363086                       # Writes before turning the bus around for reads
system.mem_ctrls2.wrPerTurnAround::4-7          11182     97.72%     97.72% # Writes before turning the bus around for reads
system.mem_ctrls2.wrPerTurnAround::8-11            83      0.73%     98.44% # Writes before turning the bus around for reads
system.mem_ctrls2.wrPerTurnAround::12-15           51      0.45%     98.89% # Writes before turning the bus around for reads
system.mem_ctrls2.wrPerTurnAround::16-19          127      1.11%    100.00% # Writes before turning the bus around for reads
system.mem_ctrls2.wrPerTurnAround::total        11443                       # Writes before turning the bus around for reads
system.mem_ctrls2.totQLat                  5140377239                       # Total ticks spent queuing
system.mem_ctrls2.totMemAccLat             9196564739                       # Total ticks spent from burst creation until serviced by the DRAM
system.mem_ctrls2.totBusLat                1081650000                       # Total ticks spent in databus transfers
system.mem_ctrls2.avgQLat                    23761.74                       # Average queueing delay per DRAM burst
system.mem_ctrls2.avgBusLat                   5000.00                       # Average bus latency per DRAM burst
system.mem_ctrls2.avgMemAccLat               42511.74                       # Average memory access latency per DRAM burst
system.mem_ctrls2.avgRdBW                      251.20                       # Average DRAM read bandwidth in MiByte/s
system.mem_ctrls2.avgWrBW                       69.68                       # Average achieved write bandwidth in MiByte/s
system.mem_ctrls2.avgRdBWSys                   251.21                       # Average system read bandwidth in MiByte/s
system.mem_ctrls2.avgWrBWSys                    69.68                       # Average system write bandwidth in MiByte/s
system.mem_ctrls2.peakBW                     12800.00                       # Theoretical peak bandwidth in MiByte/s
system.mem_ctrls2.busUtil                        2.51                       # Data bus utilization in percentage
system.mem_ctrls2.busUtilRead                    1.96                       # Data bus utilization in percentage for reads
system.mem_ctrls2.busUtilWrite                   0.54                       # Data bus utilization in percentage for writes
system.mem_ctrls2.avgRdQLen                      1.15                       # Average read queue length when enqueuing
system.mem_ctrls2.avgWrQLen                      2.99                       # Average write queue length when enqueuing
system.mem_ctrls2.readRowHits                  132975                       # Number of row buffer hits during reads
system.mem_ctrls2.writeRowHits                  37062                       # Number of row buffer hits during writes
system.mem_ctrls2.readRowHitRate                61.47                       # Row buffer hit rate for reads
system.mem_ctrls2.writeRowHitRate               61.76                       # Row buffer hit rate for writes
system.mem_ctrls2.avgGap                    199439.32                       # Average gap between requests
system.mem_ctrls2.pageHitRate                   61.53                       # Row buffer hit rate, read and write combined
system.mem_ctrls2.memoryStateTime::IDLE   11104322000                       # Time in different power states
system.mem_ctrls2.memoryStateTime::REF     1840280000                       # Time in different power states
system.mem_ctrls2.memoryStateTime::PRE_PDN            0                       # Time in different power states
system.mem_ctrls2.memoryStateTime::ACT    42167088500                       # Time in different power states
system.mem_ctrls2.memoryStateTime::ACT_PDN            0                       # Time in different power states
system.mem_ctrls2.actEnergy::0              406266840                       # Energy for activate commands per rank (pJ)
system.mem_ctrls2.actEnergy::1              397300680                       # Energy for activate commands per rank (pJ)
system.mem_ctrls2.preEnergy::0              221673375                       # Energy for precharge commands per rank (pJ)
system.mem_ctrls2.preEnergy::1              216781125                       # Energy for precharge commands per rank (pJ)
system.mem_ctrls2.readEnergy::0             851229600                       # Energy for read commands per rank (pJ)
system.mem_ctrls2.readEnergy::1             836035200                       # Energy for read commands per rank (pJ)
system.mem_ctrls2.writeEnergy::0            197478000                       # Energy for write commands per rank (pJ)
system.mem_ctrls2.writeEnergy::1            191373840                       # Energy for write commands per rank (pJ)
system.mem_ctrls2.refreshEnergy::0         3599587680                       # Energy for refresh commands per rank (pJ)
system.mem_ctrls2.refreshEnergy::1         3599587680                       # Energy for refresh commands per rank (pJ)
system.mem_ctrls2.actBackEnergy::0        22172137875                       # Energy for active background per rank (pJ)
system.mem_ctrls2.actBackEnergy::1        21559542345                       # Energy for active background per rank (pJ)
system.mem_ctrls2.preBackEnergy::0        13617558750                       # Energy for precharge background per rank (pJ)
system.mem_ctrls2.preBackEnergy::1        14154923250                       # Energy for precharge background per rank (pJ)
system.mem_ctrls2.totalEnergy::0          41065932120                       # Total energy per rank (pJ)
system.mem_ctrls2.totalEnergy::1          40955544120                       # Total energy per rank (pJ)
system.mem_ctrls2.averagePower::0          745.144901                       # Core power per rank (mW)
system.mem_ctrls2.averagePower::1          743.141901                       # Core power per rank (mW)
system.mem_ctrls3.bytes_read::ruby.dir_cntrl3     13844160                       # Number of bytes read from this memory
system.mem_ctrls3.bytes_read::total          13844160                       # Number of bytes read from this memory
system.mem_ctrls3.bytes_written::ruby.dir_cntrl3      3837568                       # Number of bytes written to this memory
system.mem_ctrls3.bytes_written::total        3837568                       # Number of bytes written to this memory
system.mem_ctrls3.num_reads::ruby.dir_cntrl3       216315                       # Number of read requests responded to by this memory
system.mem_ctrls3.num_reads::total             216315                       # Number of read requests responded to by this memory
system.mem_ctrls3.num_writes::ruby.dir_cntrl3        59962                       # Number of write requests responded to by this memory
system.mem_ctrls3.num_writes::total             59962                       # Number of write requests responded to by this memory
system.mem_ctrls3.bw_read::ruby.dir_cntrl3    251182359                       # Total read bandwidth from this memory (bytes/s)
system.mem_ctrls3.bw_read::total            251182359                       # Total read bandwidth from this memory (bytes/s)
system.mem_ctrls3.bw_write::ruby.dir_cntrl3     69627148                       # Write bandwidth from this memory (bytes/s)
system.mem_ctrls3.bw_write::total            69627148                       # Write bandwidth from this memory (bytes/s)
system.mem_ctrls3.bw_total::ruby.dir_cntrl3    320809508                       # Total bandwidth to/from this memory (bytes/s)
system.mem_ctrls3.bw_total::total           320809508                       # Total bandwidth to/from this memory (bytes/s)
system.mem_ctrls3.readReqs                     216316                       # Number of read requests accepted
system.mem_ctrls3.writeReqs                     59962                       # Number of write requests accepted
system.mem_ctrls3.readBursts                   216316                       # Number of DRAM read bursts, including those serviced by the write queue
system.mem_ctrls3.writeBursts                   59962                       # Number of DRAM write bursts, including those merged in the write queue
system.mem_ctrls3.bytesReadDRAM              13843520                       # Total number of bytes read from DRAM
system.mem_ctrls3.bytesReadWrQ                    704                       # Total number of bytes read from write queue
system.mem_ctrls3.bytesWritten                3837376                       # Total number of bytes written to DRAM
system.mem_ctrls3.bytesReadSys               13844224                       # Total read bytes from the system interface side
system.mem_ctrls3.bytesWrittenSys             3837568                       # Total written bytes from the system interface side
system.mem_ctrls3.servicedByWrQ                    11                       # Number of DRAM read bursts serviced by the write queue
system.mem_ctrls3.mergedWrBursts                    0                       # Number of DRAM write bursts merged with an existing one
system.mem_ctrls3.neitherReadNorWriteReqs            0                       # Number of requests that are neither read nor write
system.mem_ctrls3.perBankRdBursts::0            13267                       # Per bank write bursts
system.mem_ctrls3.perBankRdBursts::1            13799                       # Per bank write bursts
system.mem_ctrls3.perBankRdBursts::2            13437                       # Per bank write bursts
system.mem_ctrls3.perBankRdBursts::3            13898                       # Per bank write bursts
system.mem_ctrls3.perBankRdBursts::4            13489                       # Per bank write bursts
system.mem_ctrls3.perBankRdBursts::5            14268                       # Per bank write bursts
system.mem_ctrls3.perBankRdBursts::6            13508                       # Per bank write bursts
system.mem_ctrls3.perBankRdBursts::7            13484                       # Per bank write bursts
system.mem_ctrls3.perBankRdBursts::8            13382                       # Per bank write bursts
system.mem_ctrls3.perBankRdBursts::9            13702                       # Per bank write bursts
system.mem_ctrls3.perBankRdBursts::10           13452                       # Per bank write bursts
system.mem_ctrls3.perBankRdBursts::11           13653                       # Per bank write bursts
system.mem_ctrls3.perBankRdBursts::12           13200                       # Per bank write bursts
system.mem_ctrls3.perBankRdBursts::13           13056                       # Per bank write bursts
system.mem_ctrls3.perBankRdBursts::14           13310                       # Per bank write bursts
system.mem_ctrls3.perBankRdBursts::15           13400                       # Per bank write bursts
system.mem_ctrls3.perBankWrBursts::0             3684                       # Per bank write bursts
system.mem_ctrls3.perBankWrBursts::1             3769                       # Per bank write bursts
system.mem_ctrls3.perBankWrBursts::2             3753                       # Per bank write bursts
system.mem_ctrls3.perBankWrBursts::3             3977                       # Per bank write bursts
system.mem_ctrls3.perBankWrBursts::4             3768                       # Per bank write bursts
system.mem_ctrls3.perBankWrBursts::5             3905                       # Per bank write bursts
system.mem_ctrls3.perBankWrBursts::6             3801                       # Per bank write bursts
system.mem_ctrls3.perBankWrBursts::7             3769                       # Per bank write bursts
system.mem_ctrls3.perBankWrBursts::8             3664                       # Per bank write bursts
system.mem_ctrls3.perBankWrBursts::9             3909                       # Per bank write bursts
system.mem_ctrls3.perBankWrBursts::10            3669                       # Per bank write bursts
system.mem_ctrls3.perBankWrBursts::11            3613                       # Per bank write bursts
[...]
system.ruby.L2Cache_Controller.SS_MB.Exclusive_Unblock::total          255                      
system.ruby.L2Cache_Controller.MT_MB.L1_GETS |           3     33.33%     33.33% |           0      0.00%     33.33% |           0      0.00%     33.33% |           0      0.00%     33.33% |           0      0.00%     33.33% |           0      0.00%     33.33% |           0      0.00%     33.33% |           0      0.00%     33.33% |           0      0.00%     33.33% |           0      0.00%     33.33% |           0      0.00%     33.33% |           0      0.00%     33.33% |           0      0.00%     33.33% |           0      0.00%     33.33% |           0      0.00%     33.33% |           0      0.00%     33.33% |           0      0.00%     33.33% |           2     22.22%     55.56% |           2     22.22%     77.78% |           2     22.22%    100.00% |           0      0.00%    100.00% |           0      0.00%    100.00% |           0      0.00%    100.00% |           0      0.00%    100.00% |           0      0.00%    100.00% |           0      0.00%    100.00% |           0      0.00%    100.00% |           0      0.00%    100.00% |           0      0.00%    100.00% |           0      0.00%    100.00% |           0      0.00%    100.00% |           0      0.00%    100.00%
system.ruby.L2Cache_Controller.MT_MB.L1_GETS::total            9                      
system.ruby.L2Cache_Controller.MT_MB.Exclusive_Unblock |       77571      7.09%      7.09% |       33349      3.05%     10.14% |       32632      2.98%     13.12% |       32834      3.00%     16.13% |       33066      3.02%     19.15% |       31989      2.92%     22.07% |       31919      2.92%     24.99% |       31651      2.89%     27.89% |       33904      3.10%     30.99% |       32316      2.95%     33.94% |       34258      3.13%     37.07% |       33111      3.03%     40.10% |       32649      2.99%     43.09% |       31704      2.90%     45.98% |       31735      2.90%     48.89% |       31662      2.89%     51.78% |       34235      3.13%     54.91% |       32082      2.93%     57.84% |       32927      3.01%     60.85% |       32531      2.97%     63.83% |       32991      3.02%     66.84% |       32436      2.97%     69.81% |       32974      3.01%     72.83% |       31996      2.93%     75.75% |       33602      3.07%     78.82% |       32300      2.95%     81.78% |       32800      3.00%     84.77% |       31796      2.91%     87.68% |       33121      3.03%     90.71% |       31865      2.91%     93.62% |       34235      3.13%     96.75% |       35512      3.25%    100.00%
system.ruby.L2Cache_Controller.MT_MB.Exclusive_Unblock::total      1093753                      
system.ruby.L2Cache_Controller.MT_IIB.L1_GETS |           1     11.11%     11.11% |           4     44.44%     55.56% |           0      0.00%     55.56% |           0      0.00%     55.56% |           0      0.00%     55.56% |           0      0.00%     55.56% |           0      0.00%     55.56% |           0      0.00%     55.56% |           0      0.00%     55.56% |           0      0.00%     55.56% |           0      0.00%     55.56% |           0      0.00%     55.56% |           0      0.00%     55.56% |           0      0.00%     55.56% |           0      0.00%     55.56% |           0      0.00%     55.56% |           0      0.00%     55.56% |           1     11.11%     66.67% |           1     11.11%     77.78% |           2     22.22%    100.00% |           0      0.00%    100.00% |           0      0.00%    100.00% |           0      0.00%    100.00% |           0      0.00%    100.00% |           0      0.00%    100.00% |           0      0.00%    100.00% |           0      0.00%    100.00% |           0      0.00%    100.00% |           0      0.00%    100.00% |           0      0.00%    100.00% |           0      0.00%    100.00% |           0      0.00%    100.00%
system.ruby.L2Cache_Controller.MT_IIB.L1_GETS::total            9                      
system.ruby.L2Cache_Controller.MT_IIB.L1_PUTX |           1    100.00%    100.00% |           0      0.00%    100.00% |           0      0.00%    100.00% |           0      0.00%    100.00% |           0      0.00%    100.00% |           0      0.00%    100.00% |           0      0.00%    100.00% |           0      0.00%    100.00% |           0      0.00%    100.00% |           0      0.00%    100.00% |           0      0.00%    100.00% |           0      0.00%    100.00% |           0      0.00%    100.00% |           0      0.00%    100.00% |           0      0.00%    100.00% |           0      0.00%    100.00% |           0      0.00%    100.00% |           0      0.00%    100.00% |           0      0.00%    100.00% |           0      0.00%    100.00% |           0      0.00%    100.00% |           0      0.00%    100.00% |           0      0.00%    100.00% |           0      0.00%    100.00% |           0      0.00%    100.00% |           0      0.00%    100.00% |           0      0.00%    100.00% |           0      0.00%    100.00% |           0      0.00%    100.00% |           0      0.00%    100.00% |           0      0.00%    100.00% |           0      0.00%    100.00%
system.ruby.L2Cache_Controller.MT_IIB.L1_PUTX::total            1                      
system.ruby.L2Cache_Controller.MT_IIB.WB_Data |         218      6.11%      6.11% |         110      3.08%      9.19% |         108      3.03%     12.22% |         102      2.86%     15.08% |         108      3.03%     18.11% |         108      3.03%     21.13% |         108      3.03%     24.16% |         108      3.03%     27.19% |         108      3.03%     30.21% |         108      3.03%     33.24% |         106      2.97%     36.21% |         106      2.97%     39.18% |         112      3.14%     42.32% |         108      3.03%     45.35% |         108      3.03%     48.37% |         108      3.03%     51.40% |         108      3.03%     54.43% |         108      3.03%     57.46% |         109      3.05%     60.51% |         109      3.05%     63.57% |         108      3.03%     66.59% |         108      3.03%     69.62% |         110      3.08%     72.70% |         108      3.03%     75.73% |         108      3.03%     78.76% |         108      3.03%     81.78% |         108      3.03%     84.81% |         108      3.03%     87.84% |         110      3.08%     90.92% |         108      3.03%     93.95% |         108      3.03%     96.97% |         108      3.03%    100.00%
system.ruby.L2Cache_Controller.MT_IIB.WB_Data::total         3568                      
system.ruby.L2Cache_Controller.MT_IIB.WB_Data_clean |         601     96.47%     96.47% |           3      0.48%     96.95% |           1      0.16%     97.11% |           0      0.00%     97.11% |           0      0.00%     97.11% |           0      0.00%     97.11% |           0      0.00%     97.11% |           0      0.00%     97.11% |           0      0.00%     97.11% |           0      0.00%     97.11% |           0      0.00%     97.11% |           0      0.00%     97.11% |           0      0.00%     97.11% |           0      0.00%     97.11% |           1      0.16%     97.27% |           0      0.00%     97.27% |           1      0.16%     97.43% |           6      0.96%     98.39% |           6      0.96%     99.36% |           4      0.64%    100.00% |           0      0.00%    100.00% |           0      0.00%    100.00% |           0      0.00%    100.00% |           0      0.00%    100.00% |           0      0.00%    100.00% |           0      0.00%    100.00% |           0      0.00%    100.00% |           0      0.00%    100.00% |           0      0.00%    100.00% |           0      0.00%    100.00% |           0      0.00%    100.00% |           0      0.00%    100.00%
system.ruby.L2Cache_Controller.MT_IIB.WB_Data_clean::total          623                      
system.ruby.L2Cache_Controller.MT_IIB.Unblock |           1      8.33%      8.33% |           0      0.00%      8.33% |           0      0.00%      8.33% |           6     50.00%     58.33% |           0      0.00%     58.33% |           0      0.00%     58.33% |           0      0.00%     58.33% |           0      0.00%     58.33% |           0      0.00%     58.33% |           0      0.00%     58.33% |           2     16.67%     75.00% |           2     16.67%     91.67% |           0      0.00%     91.67% |           0      0.00%     91.67% |           0      0.00%     91.67% |           0      0.00%     91.67% |           0      0.00%     91.67% |           0      0.00%     91.67% |           0      0.00%     91.67% |           0      0.00%     91.67% |           0      0.00%     91.67% |           0      0.00%     91.67% |           0      0.00%     91.67% |           0      0.00%     91.67% |           0      0.00%     91.67% |           1      8.33%    100.00% |           0      0.00%    100.00% |           0      0.00%    100.00% |           0      0.00%    100.00% |           0      0.00%    100.00% |           0      0.00%    100.00% |           0      0.00%    100.00%
system.ruby.L2Cache_Controller.MT_IIB.Unblock::total           12                      
system.ruby.L2Cache_Controller.MT_IB.WB_Data |           0      0.00%      0.00% |           0      0.00%      0.00% |           0      0.00%      0.00% |           6     54.55%     54.55% |           0      0.00%     54.55% |           0      0.00%     54.55% |           0      0.00%     54.55% |           0      0.00%     54.55% |           0      0.00%     54.55% |           0      0.00%     54.55% |           2     18.18%     72.73% |           2     18.18%     90.91% |           0      0.00%     90.91% |           0      0.00%     90.91% |           0      0.00%     90.91% |           0      0.00%     90.91% |           0      0.00%     90.91% |           0      0.00%     90.91% |           0      0.00%     90.91% |           0      0.00%     90.91% |           0      0.00%     90.91% |           0      0.00%     90.91% |           0      0.00%     90.91% |           0      0.00%     90.91% |           0      0.00%     90.91% |           1      9.09%    100.00% |           0      0.00%    100.00% |           0      0.00%    100.00% |           0      0.00%    100.00% |           0      0.00%    100.00% |           0      0.00%    100.00% |           0      0.00%    100.00%
system.ruby.L2Cache_Controller.MT_IB.WB_Data::total           11                      
system.ruby.L2Cache_Controller.MT_IB.WB_Data_clean |           1    100.00%    100.00% |           0      0.00%    100.00% |           0      0.00%    100.00% |           0      0.00%    100.00% |           0      0.00%    100.00% |           0      0.00%    100.00% |           0      0.00%    100.00% |           0      0.00%    100.00% |           0      0.00%    100.00% |           0      0.00%    100.00% |           0      0.00%    100.00% |           0      0.00%    100.00% |           0      0.00%    100.00% |           0      0.00%    100.00% |           0      0.00%    100.00% |           0      0.00%    100.00% |           0      0.00%    100.00% |           0      0.00%    100.00% |           0      0.00%    100.00% |           0      0.00%    100.00% |           0      0.00%    100.00% |           0      0.00%    100.00% |           0      0.00%    100.00% |           0      0.00%    100.00% |           0      0.00%    100.00% |           0      0.00%    100.00% |           0      0.00%    100.00% |           0      0.00%    100.00% |           0      0.00%    100.00% |           0      0.00%    100.00% |           0      0.00%    100.00% |           0      0.00%    100.00%
system.ruby.L2Cache_Controller.MT_IB.WB_Data_clean::total            1                      
system.ruby.L2Cache_Controller.MT_SB.L1_GETS |           1     33.33%     33.33% |           2     66.67%    100.00% |           0      0.00%    100.00% |           0      0.00%    100.00% |           0      0.00%    100.00% |           0      0.00%    100.00% |           0      0.00%    100.00% |           0      0.00%    100.00% |           0      0.00%    100.00% |           0      0.00%    100.00% |           0      0.00%    100.00% |           0      0.00%    100.00% |           0      0.00%    100.00% |           0      0.00%    100.00% |           0      0.00%    100.00% |           0      0.00%    100.00% |           0      0.00%    100.00% |           0      0.00%    100.00% |           0      0.00%    100.00% |           0      0.00%    100.00% |           0      0.00%    100.00% |           0      0.00%    100.00% |           0      0.00%    100.00% |           0      0.00%    100.00% |           0      0.00%    100.00% |           0      0.00%    100.00% |           0      0.00%    100.00% |           0      0.00%    100.00% |           0      0.00%    100.00% |           0      0.00%    100.00% |           0      0.00%    100.00% |           0      0.00%    100.00%
system.ruby.L2Cache_Controller.MT_SB.L1_GETS::total            3                      
system.ruby.L2Cache_Controller.MT_SB.Unblock |         819     19.54%     19.54% |         113      2.70%     22.24% |         109      2.60%     24.84% |         102      2.43%     27.27% |         108      2.58%     29.85% |         108      2.58%     32.43% |         108      2.58%     35.00% |         108      2.58%     37.58% |         108      2.58%     40.16% |         108      2.58%     42.73% |         106      2.53%     45.26% |         106      2.53%     47.79% |         112      2.67%     50.47% |         108      2.58%     53.04% |         109      2.60%     55.64% |         108      2.58%     58.22% |         109      2.60%     60.82% |         114      2.72%     63.54% |         115      2.74%     66.28% |         113      2.70%     68.98% |         108      2.58%     71.56% |         108      2.58%     74.14% |         110      2.62%     76.76% |         108      2.58%     79.34% |         108      2.58%     81.91% |         108      2.58%     84.49% |         108      2.58%     87.07% |         108      2.58%     89.64% |         110      2.62%     92.27% |         108      2.58%     94.85% |         108      2.58%     97.42% |         108      2.58%    100.00%
system.ruby.L2Cache_Controller.MT_SB.Unblock::total         4191                      
system.ruby.SimicsNetworkPortInterface_Controller.MessageSend |       75624      4.34%      4.34% |      870518     50.00%     54.34% |       56468      3.24%     57.59% |       50397      2.89%     60.48% |       49818      2.86%     63.34% |       50809      2.92%     66.26% |       49937      2.87%     69.13% |       50778      2.92%     72.05% |       48162      2.77%     74.81% |       48666      2.80%     77.61% |       48126      2.76%     80.37% |       48838      2.81%     83.18% |       49834      2.86%     86.04% |       48775      2.80%     88.84% |       47669      2.74%     91.58% |       48110      2.76%     94.34% |       48730      2.80%     97.14% |       49777      2.86%    100.00% |           0      0.00%    100.00% |           0      0.00%    100.00% |           0      0.00%    100.00% |           0      0.00%    100.00% |           0      0.00%    100.00% |           0      0.00%    100.00% |           0      0.00%    100.00% |           0      0.00%    100.00% |           0      0.00%    100.00% |           0      0.00%    100.00% |           0      0.00%    100.00% |           0      0.00%    100.00% |           0      0.00%    100.00% |           0      0.00%    100.00%
system.ruby.SimicsNetworkPortInterface_Controller.MessageSend::total      1741036                      
system.ruby.SimicsNetworkPortInterface_Controller.MessageRecv |       75624      4.34%      4.34% |      870518     50.00%     54.34% |       56468      3.24%     57.59% |       50397      2.89%     60.48% |       49818      2.86%     63.34% |       50809      2.92%     66.26% |       49937      2.87%     69.13% |       50778      2.92%     72.05% |       48162      2.77%     74.81% |       48666      2.80%     77.61% |       48126      2.76%     80.37% |       48838      2.81%     83.18% |       49834      2.86%     86.04% |       48775      2.80%     88.84% |       47669      2.74%     91.58% |       48110      2.76%     94.34% |       48730      2.80%     97.14% |       49777      2.86%    100.00% |           0      0.00%    100.00% |           0      0.00%    100.00% |           0      0.00%    100.00% |           0      0.00%    100.00% |           0      0.00%    100.00% |           0      0.00%    100.00% |           0      0.00%    100.00% |           0      0.00%    100.00% |           0      0.00%    100.00% |           0      0.00%    100.00% |           0      0.00%    100.00% |           0      0.00%    100.00% |           0      0.00%    100.00% |           0      0.00%    100.00%
system.ruby.SimicsNetworkPortInterface_Controller.MessageRecv::total      1741036                      
system.ruby.SimicsNetworkPortInterface_Controller.A.MessageSend |       75624      4.34%      4.34% |      870518     50.00%     54.34% |       56468      3.24%     57.59% |       50397      2.89%     60.48% |       49818      2.86%     63.34% |       50809      2.92%     66.26% |       49937      2.87%     69.13% |       50778      2.92%     72.05% |       48162      2.77%     74.81% |       48666      2.80%     77.61% |       48126      2.76%     80.37% |       48838      2.81%     83.18% |       49834      2.86%     86.04% |       48775      2.80%     88.84% |       47669      2.74%     91.58% |       48110      2.76%     94.34% |       48730      2.80%     97.14% |       49777      2.86%    100.00% |           0      0.00%    100.00% |           0      0.00%    100.00% |           0      0.00%    100.00% |           0      0.00%    100.00% |           0      0.00%    100.00% |           0      0.00%    100.00% |           0      0.00%    100.00% |           0      0.00%    100.00% |           0      0.00%    100.00% |           0      0.00%    100.00% |           0      0.00%    100.00% |           0      0.00%    100.00% |           0      0.00%    100.00% |           0      0.00%    100.00%
system.ruby.SimicsNetworkPortInterface_Controller.A.MessageSend::total      1741036                      
system.ruby.SimicsNetworkPortInterface_Controller.A.MessageRecv |       75624      4.34%      4.34% |      870518     50.00%     54.34% |       56468      3.24%     57.59% |       50397      2.89%     60.48% |       49818      2.86%     63.34% |       50809      2.92%     66.26% |       49937      2.87%     69.13% |       50778      2.92%     72.05% |       48162      2.77%     74.81% |       48666      2.80%     77.61% |       48126      2.76%     80.37% |       48838      2.81%     83.18% |       49834      2.86%     86.04% |       48775      2.80%     88.84% |       47669      2.74%     91.58% |       48110      2.76%     94.34% |       48730      2.80%     97.14% |       49777      2.86%    100.00% |           0      0.00%    100.00% |           0      0.00%    100.00% |           0      0.00%    100.00% |           0      0.00%    100.00% |           0      0.00%    100.00% |           0      0.00%    100.00% |           0      0.00%    100.00% |           0      0.00%    100.00% |           0      0.00%    100.00% |           0      0.00%    100.00% |           0      0.00%    100.00% |           0      0.00%    100.00% |           0      0.00%    100.00% |           0      0.00%    100.00%
system.ruby.SimicsNetworkPortInterface_Controller.A.MessageRecv::total      1741036                      
system.switch_cpus.kern.inst.arm                    0                       # number of arm instructions executed
system.switch_cpus.kern.inst.quiesce                0                       # number of quiesce instructions executed

---------- End Simulation Statistics   ----------
