
---------- Begin Simulation Statistics ----------
sim_seconds                                  0.154063                       # Number of seconds simulated
sim_ticks                                154063106000                       # Number of ticks simulated
final_tick                               5330231184500                       # Number of ticks from beginning of simulation (restored from checkpoints and never reset)
sim_freq                                 1000000000000                       # Frequency of simulated ticks
host_inst_rate                                  81896                       # Simulator instruction rate (inst/s)
host_op_rate                                   155797                       # Simulator op (including micro ops) rate (op/s)
host_tick_rate                              194465808                       # Simulator tick rate (ticks/s)
host_mem_usage                                5262816                       # Number of bytes of host memory used
host_seconds                                   792.24                       # Real time elapsed on the host
sim_insts                                    64881362                       # Number of instructions simulated
sim_ops                                     123427981                       # Number of ops (including micro ops) simulated
system.voltage_domain.voltage                       1                       # Voltage in Volts
system.clk_domain.clock                           500                       # Clock period in ticks
system.mem_ctrls0.bytes_read::ruby.dir_cntrl0     25271936                       # Number of bytes read from this memory
system.mem_ctrls0.bytes_read::total          25271936                       # Number of bytes read from this memory
system.mem_ctrls0.bytes_written::ruby.dir_cntrl0     21423552                       # Number of bytes written to this memory
system.mem_ctrls0.bytes_written::total       21423552                       # Number of bytes written to this memory
system.mem_ctrls0.num_reads::ruby.dir_cntrl0       394874                       # Number of read requests responded to by this memory
system.mem_ctrls0.num_reads::total             394874                       # Number of read requests responded to by this memory
system.mem_ctrls0.num_writes::ruby.dir_cntrl0       334743                       # Number of write requests responded to by this memory
system.mem_ctrls0.num_writes::total            334743                       # Number of write requests responded to by this memory
system.mem_ctrls0.bw_read::ruby.dir_cntrl0    164036262                       # Total read bandwidth from this memory (bytes/s)
system.mem_ctrls0.bw_read::total            164036262                       # Total read bandwidth from this memory (bytes/s)
system.mem_ctrls0.bw_write::ruby.dir_cntrl0    139056991                       # Write bandwidth from this memory (bytes/s)
system.mem_ctrls0.bw_write::total           139056991                       # Write bandwidth from this memory (bytes/s)
system.mem_ctrls0.bw_total::ruby.dir_cntrl0    303093253                       # Total bandwidth to/from this memory (bytes/s)
system.mem_ctrls0.bw_total::total           303093253                       # Total bandwidth to/from this memory (bytes/s)
system.mem_ctrls0.readReqs                     394876                       # Number of read requests accepted
system.mem_ctrls0.writeReqs                    334743                       # Number of write requests accepted
system.mem_ctrls0.readBursts                   394876                       # Number of DRAM read bursts, including those serviced by the write queue
system.mem_ctrls0.writeBursts                  334743                       # Number of DRAM write bursts, including those merged in the write queue
system.mem_ctrls0.bytesReadDRAM              25270784                       # Total number of bytes read from DRAM
system.mem_ctrls0.bytesReadWrQ                   1280                       # Total number of bytes read from write queue
system.mem_ctrls0.bytesWritten               21423360                       # Total number of bytes written to DRAM
system.mem_ctrls0.bytesReadSys               25272064                       # Total read bytes from the system interface side
system.mem_ctrls0.bytesWrittenSys            21423552                       # Total written bytes from the system interface side
system.mem_ctrls0.servicedByWrQ                    20                       # Number of DRAM read bursts serviced by the write queue
system.mem_ctrls0.mergedWrBursts                    0                       # Number of DRAM write bursts merged with an existing one
system.mem_ctrls0.neitherReadNorWriteReqs            0                       # Number of requests that are neither read nor write
system.mem_ctrls0.perBankRdBursts::0            24364                       # Per bank write bursts
system.mem_ctrls0.perBankRdBursts::1            25083                       # Per bank write bursts
system.mem_ctrls0.perBankRdBursts::2            24645                       # Per bank write bursts
system.mem_ctrls0.perBankRdBursts::3            24951                       # Per bank write bursts
system.mem_ctrls0.perBankRdBursts::4            24588                       # Per bank write bursts
system.mem_ctrls0.perBankRdBursts::5            24932                       # Per bank write bursts
system.mem_ctrls0.perBankRdBursts::6            24980                       # Per bank write bursts
system.mem_ctrls0.perBankRdBursts::7            24755                       # Per bank write bursts
system.mem_ctrls0.perBankRdBursts::8            24661                       # Per bank write bursts
system.mem_ctrls0.perBankRdBursts::9            24789                       # Per bank write bursts
system.mem_ctrls0.perBankRdBursts::10           24579                       # Per bank write bursts
system.mem_ctrls0.perBankRdBursts::11           25070                       # Per bank write bursts
system.mem_ctrls0.perBankRdBursts::12           24329                       # Per bank write bursts
system.mem_ctrls0.perBankRdBursts::13           24247                       # Per bank write bursts
system.mem_ctrls0.perBankRdBursts::14           24412                       # Per bank write bursts
system.mem_ctrls0.perBankRdBursts::15           24471                       # Per bank write bursts
system.mem_ctrls0.perBankWrBursts::0            20940                       # Per bank write bursts
system.mem_ctrls0.perBankWrBursts::1            20850                       # Per bank write bursts
system.mem_ctrls0.perBankWrBursts::2            20858                       # Per bank write bursts
system.mem_ctrls0.perBankWrBursts::3            21147                       # Per bank write bursts
system.mem_ctrls0.perBankWrBursts::4            20743                       # Per bank write bursts
system.mem_ctrls0.perBankWrBursts::5            21061                       # Per bank write bursts
system.mem_ctrls0.perBankWrBursts::6            21071                       # Per bank write bursts
system.mem_ctrls0.perBankWrBursts::7            21032                       # Per bank write bursts
system.mem_ctrls0.perBankWrBursts::8            21138                       # Per bank write bursts
system.mem_ctrls0.perBankWrBursts::9            20915                       # Per bank write bursts
system.mem_ctrls0.perBankWrBursts::10           20812                       # Per bank write bursts
system.mem_ctrls0.perBankWrBursts::11           20862                       # Per bank write bursts
system.mem_ctrls0.perBankWrBursts::12           20662                       # Per bank write bursts
system.mem_ctrls0.perBankWrBursts::13           20910                       # Per bank write bursts
system.mem_ctrls0.perBankWrBursts::14           20929                       # Per bank write bursts
system.mem_ctrls0.perBankWrBursts::15           20810                       # Per bank write bursts
system.mem_ctrls0.numRdRetry                    68829                       # Number of times read queue was full causing retry
system.mem_ctrls0.numWrRetry                    12789                       # Number of times write queue was full causing retry
system.mem_ctrls0.totGap                 154062853500                       # Total gap between requests
system.mem_ctrls0.readPktSize::0                    0                       # Read request sizes (log2)
system.mem_ctrls0.readPktSize::1                    0                       # Read request sizes (log2)
system.mem_ctrls0.readPktSize::2                    0                       # Read request sizes (log2)
system.mem_ctrls0.readPktSize::3                    0                       # Read request sizes (log2)
system.mem_ctrls0.readPktSize::4                    0                       # Read request sizes (log2)
system.mem_ctrls0.readPktSize::5                    0                       # Read request sizes (log2)
system.mem_ctrls0.readPktSize::6               394876                       # Read request sizes (log2)
system.mem_ctrls0.writePktSize::0                   0                       # Write request sizes (log2)
system.mem_ctrls0.writePktSize::1                   0                       # Write request sizes (log2)
system.mem_ctrls0.writePktSize::2                   0                       # Write request sizes (log2)
system.mem_ctrls0.writePktSize::3                   0                       # Write request sizes (log2)
system.mem_ctrls0.writePktSize::4                   0                       # Write request sizes (log2)
system.mem_ctrls0.writePktSize::5                   0                       # Write request sizes (log2)
system.mem_ctrls0.writePktSize::6              334743                       # Write request sizes (log2)
system.mem_ctrls0.rdQLenPdf::0                 206908                       # What read queue length does an incoming req see
system.mem_ctrls0.rdQLenPdf::1                   9274                       # What read queue length does an incoming req see
system.mem_ctrls0.rdQLenPdf::2                   6872                       # What read queue length does an incoming req see
system.mem_ctrls0.rdQLenPdf::3                   4624                       # What read queue length does an incoming req see
system.mem_ctrls0.rdQLenPdf::4                   5056                       # What read queue length does an incoming req see
system.mem_ctrls0.rdQLenPdf::5                   5029                       # What read queue length does an incoming req see
system.mem_ctrls0.rdQLenPdf::6                   4929                       # What read queue length does an incoming req see
system.mem_ctrls0.rdQLenPdf::7                   4688                       # What read queue length does an incoming req see
system.mem_ctrls0.rdQLenPdf::8                   4559                       # What read queue length does an incoming req see
system.mem_ctrls0.rdQLenPdf::9                   4336                       # What read queue length does an incoming req see
system.mem_ctrls0.rdQLenPdf::10                  4086                       # What read queue length does an incoming req see
system.mem_ctrls0.rdQLenPdf::11                  3868                       # What read queue length does an incoming req see
system.mem_ctrls0.rdQLenPdf::12                  3879                       # What read queue length does an incoming req see
system.mem_ctrls0.rdQLenPdf::13                  3702                       # What read queue length does an incoming req see
system.mem_ctrls0.rdQLenPdf::14                  3618                       # What read queue length does an incoming req see
system.mem_ctrls0.rdQLenPdf::15                  3484                       # What read queue length does an incoming req see
system.mem_ctrls0.rdQLenPdf::16                  3361                       # What read queue length does an incoming req see
system.mem_ctrls0.rdQLenPdf::17                  3231                       # What read queue length does an incoming req see
system.mem_ctrls0.rdQLenPdf::18                  3089                       # What read queue length does an incoming req see
system.mem_ctrls0.rdQLenPdf::19                  2902                       # What read queue length does an incoming req see
system.mem_ctrls0.rdQLenPdf::20                  2858                       # What read queue length does an incoming req see
system.mem_ctrls0.rdQLenPdf::21                  2730                       # What read queue length does an incoming req see
system.mem_ctrls0.rdQLenPdf::22                  2650                       # What read queue length does an incoming req see
system.mem_ctrls0.rdQLenPdf::23                  2507                       # What read queue length does an incoming req see
system.mem_ctrls0.rdQLenPdf::24                  2578                       # What read queue length does an incoming req see
system.mem_ctrls0.rdQLenPdf::25                  2538                       # What read queue length does an incoming req see
system.mem_ctrls0.rdQLenPdf::26                  2525                       # What read queue length does an incoming req see
system.mem_ctrls0.rdQLenPdf::27                  2607                       # What read queue length does an incoming req see
system.mem_ctrls0.rdQLenPdf::28                  2704                       # What read queue length does an incoming req see
system.mem_ctrls0.rdQLenPdf::29                  2966                       # What read queue length does an incoming req see
system.mem_ctrls0.rdQLenPdf::30                  3280                       # What read queue length does an incoming req see
system.mem_ctrls0.rdQLenPdf::31                 73418                       # What read queue length does an incoming req see
system.mem_ctrls0.wrQLenPdf::0                  49744                       # What write queue length does an incoming req see
system.mem_ctrls0.wrQLenPdf::1                  54272                       # What write queue length does an incoming req see
system.mem_ctrls0.wrQLenPdf::2                  56457                       # What write queue length does an incoming req see
system.mem_ctrls0.wrQLenPdf::3                  56592                       # What write queue length does an incoming req see
system.mem_ctrls0.wrQLenPdf::4                  56776                       # What write queue length does an incoming req see
system.mem_ctrls0.wrQLenPdf::5                  15489                       # What write queue length does an incoming req see
system.mem_ctrls0.wrQLenPdf::6                  17788                       # What write queue length does an incoming req see
system.mem_ctrls0.wrQLenPdf::7                  27625                       # What write queue length does an incoming req see
system.mem_ctrls0.bytesPerActivate::samples       216906                       # Bytes accessed per row activation
system.mem_ctrls0.bytesPerActivate::mean   215.270689                       # Bytes accessed per row activation
system.mem_ctrls0.bytesPerActivate::gmean   163.392452                       # Bytes accessed per row activation
system.mem_ctrls0.bytesPerActivate::stdev   167.588673                       # Bytes accessed per row activation
system.mem_ctrls0.bytesPerActivate::0-127        68948     31.79%     31.79% # Bytes accessed per row activation
system.mem_ctrls0.bytesPerActivate::128-255        56720     26.15%     57.94% # Bytes accessed per row activation
system.mem_ctrls0.bytesPerActivate::256-383        69039     31.83%     89.77% # Bytes accessed per row activation
system.mem_ctrls0.bytesPerActivate::384-511         9497      4.38%     94.14% # Bytes accessed per row activation
system.mem_ctrls0.bytesPerActivate::512-639         5609      2.59%     96.73% # Bytes accessed per row activation
system.mem_ctrls0.bytesPerActivate::640-767         2791      1.29%     98.02% # Bytes accessed per row activation
system.mem_ctrls0.bytesPerActivate::768-895         1554      0.72%     98.73% # Bytes accessed per row activation
system.mem_ctrls0.bytesPerActivate::896-1023         1051      0.48%     99.22% # Bytes accessed per row activation
system.mem_ctrls0.bytesPerActivate::1024-1151         1697      0.78%    100.00% # Bytes accessed per row activation
system.mem_ctrls0.bytesPerActivate::total       216906                       # Bytes accessed per row activation
system.mem_ctrls0.rdPerTurnAround::samples        51529                       # Reads before turning the bus around for writes
system.mem_ctrls0.rdPerTurnAround::mean      7.662578                       # Reads before turning the bus around for writes
system.mem_ctrls0.rdPerTurnAround::stdev    18.668442                       # Reads before turning the bus around for writes
system.mem_ctrls0.rdPerTurnAround::0-127        51521     99.98%     99.98% # Reads before turning the bus around for writes
system.mem_ctrls0.rdPerTurnAround::128-255            7      0.01%    100.00% # Reads before turning the bus around for writes
system.mem_ctrls0.rdPerTurnAround::3968-4095            1      0.00%    100.00% # Reads before turning the bus around for writes
system.mem_ctrls0.rdPerTurnAround::total        51529                       # Reads before turning the bus around for writes
system.mem_ctrls0.wrPerTurnAround::samples        51529                       # Writes before turning the bus around for reads
system.mem_ctrls0.wrPerTurnAround::mean      6.496148                       # Writes before turning the bus around for reads
system.mem_ctrls0.wrPerTurnAround::gmean     5.976563                       # Writes before turning the bus around for reads
system.mem_ctrls0.wrPerTurnAround::stdev     3.251119                       # Writes before turning the bus around for reads
system.mem_ctrls0.wrPerTurnAround::4-7          42128     81.76%     81.76% # Writes before turning the bus around for reads
system.mem_ctrls0.wrPerTurnAround::8-11          3213      6.24%     87.99% # Writes before turning the bus around for reads
system.mem_ctrls0.wrPerTurnAround::12-15         3517      6.83%     94.82% # Writes before turning the bus around for reads
system.mem_ctrls0.wrPerTurnAround::16-19         2671      5.18%    100.00% # Writes before turning the bus around for reads
system.mem_ctrls0.wrPerTurnAround::total        51529                       # Writes before turning the bus around for reads
system.mem_ctrls0.totQLat                 50319867121                       # Total ticks spent queuing
system.mem_ctrls0.totMemAccLat            57723417121                       # Total ticks spent from burst creation until serviced by the DRAM
system.mem_ctrls0.totBusLat                1974280000                       # Total ticks spent in databus transfers
system.mem_ctrls0.avgQLat                   127438.53                       # Average queueing delay per DRAM burst
system.mem_ctrls0.avgBusLat                   5000.00                       # Average bus latency per DRAM burst
system.mem_ctrls0.avgMemAccLat              146188.53                       # Average memory access latency per DRAM burst
system.mem_ctrls0.avgRdBW                      164.03                       # Average DRAM read bandwidth in MiByte/s
system.mem_ctrls0.avgWrBW                      139.06                       # Average achieved write bandwidth in MiByte/s
system.mem_ctrls0.avgRdBWSys                   164.04                       # Average system read bandwidth in MiByte/s
system.mem_ctrls0.avgWrBWSys                   139.06                       # Average system write bandwidth in MiByte/s
system.mem_ctrls0.peakBW                     12800.00                       # Theoretical peak bandwidth in MiByte/s
system.mem_ctrls0.busUtil                        2.37                       # Data bus utilization in percentage
system.mem_ctrls0.busUtilRead                    1.28                       # Data bus utilization in percentage for reads
system.mem_ctrls0.busUtilWrite                   1.09                       # Data bus utilization in percentage for writes
system.mem_ctrls0.avgRdQLen                      1.34                       # Average read queue length when enqueuing
system.mem_ctrls0.avgWrQLen                      2.98                       # Average write queue length when enqueuing
system.mem_ctrls0.readRowHits                  292411                       # Number of row buffer hits during reads
system.mem_ctrls0.writeRowHits                 220271                       # Number of row buffer hits during writes
system.mem_ctrls0.readRowHitRate                74.06                       # Row buffer hit rate for reads
system.mem_ctrls0.writeRowHitRate               65.80                       # Row buffer hit rate for writes
system.mem_ctrls0.avgGap                    211155.21                       # Average gap between requests
system.mem_ctrls0.pageHitRate                   70.27                       # Row buffer hit rate, read and write combined
system.mem_ctrls0.memoryStateTime::IDLE   26566281500                       # Time in different power states
system.mem_ctrls0.memoryStateTime::REF     5144360000                       # Time in different power states
system.mem_ctrls0.memoryStateTime::PRE_PDN            0                       # Time in different power states
system.mem_ctrls0.memoryStateTime::ACT   122348830500                       # Time in different power states
system.mem_ctrls0.memoryStateTime::ACT_PDN            0                       # Time in different power states
system.mem_ctrls0.actEnergy::0              824894280                       # Energy for activate commands per rank (pJ)
system.mem_ctrls0.actEnergy::1              814824360                       # Energy for activate commands per rank (pJ)
system.mem_ctrls0.preEnergy::0              450091125                       # Energy for precharge commands per rank (pJ)
system.mem_ctrls0.preEnergy::1              444596625                       # Energy for precharge commands per rank (pJ)
system.mem_ctrls0.readEnergy::0            1546638600                       # Energy for read commands per rank (pJ)
system.mem_ctrls0.readEnergy::1            1533074400                       # Energy for read commands per rank (pJ)
system.mem_ctrls0.writeEnergy::0           1086663600                       # Energy for write commands per rank (pJ)
system.mem_ctrls0.writeEnergy::1           1082386800                       # Energy for write commands per rank (pJ)
system.mem_ctrls0.refreshEnergy::0        10062368160                       # Energy for refresh commands per rank (pJ)
system.mem_ctrls0.refreshEnergy::1        10062368160                       # Energy for refresh commands per rank (pJ)
system.mem_ctrls0.actBackEnergy::0        61281687240                       # Energy for active background per rank (pJ)
system.mem_ctrls0.actBackEnergy::1        61025273595                       # Energy for active background per rank (pJ)
system.mem_ctrls0.preBackEnergy::0        38679535500                       # Energy for precharge background per rank (pJ)
system.mem_ctrls0.preBackEnergy::1        38904459750                       # Energy for precharge background per rank (pJ)
system.mem_ctrls0.totalEnergy::0         113931878505                       # Total energy per rank (pJ)
system.mem_ctrls0.totalEnergy::1         113866983690                       # Total energy per rank (pJ)
system.mem_ctrls0.averagePower::0          739.534053                       # Core power per rank (mW)
system.mem_ctrls0.averagePower::1          739.112819                       # Core power per rank (mW)
system.mem_ctrls1.bytes_read::ruby.dir_cntrl1     24511488                       # Number of bytes read from this memory
system.mem_ctrls1.bytes_read::total          24511488                       # Number of bytes read from this memory
system.mem_ctrls1.bytes_written::ruby.dir_cntrl1     20685440                       # Number of bytes written to this memory
system.mem_ctrls1.bytes_written::total       20685440                       # Number of bytes written to this memory
system.mem_ctrls1.num_reads::ruby.dir_cntrl1       382992                       # Number of read requests responded to by this memory
system.mem_ctrls1.num_reads::total             382992                       # Number of read requests responded to by this memory
system.mem_ctrls1.num_writes::ruby.dir_cntrl1       323210                       # Number of write requests responded to by this memory
system.mem_ctrls1.num_writes::total            323210                       # Number of write requests responded to by this memory
system.mem_ctrls1.bw_read::ruby.dir_cntrl1    159100310                       # Total read bandwidth from this memory (bytes/s)
system.mem_ctrls1.bw_read::total            159100310                       # Total read bandwidth from this memory (bytes/s)
system.mem_ctrls1.bw_write::ruby.dir_cntrl1    134266020                       # Write bandwidth from this memory (bytes/s)
system.mem_ctrls1.bw_write::total           134266020                       # Write bandwidth from this memory (bytes/s)
system.mem_ctrls1.bw_total::ruby.dir_cntrl1    293366330                       # Total bandwidth to/from this memory (bytes/s)
system.mem_ctrls1.bw_total::total           293366330                       # Total bandwidth to/from this memory (bytes/s)
system.mem_ctrls1.readReqs                     382992                       # Number of read requests accepted
system.mem_ctrls1.writeReqs                    323210                       # Number of write requests accepted
system.mem_ctrls1.readBursts                   382992                       # Number of DRAM read bursts, including those serviced by the write queue
system.mem_ctrls1.writeBursts                  323210                       # Number of DRAM write bursts, including those merged in the write queue
system.mem_ctrls1.bytesReadDRAM              24510144                       # Total number of bytes read from DRAM
system.mem_ctrls1.bytesReadWrQ                   1344                       # Total number of bytes read from write queue
system.mem_ctrls1.bytesWritten               20685248                       # Total number of bytes written to DRAM
system.mem_ctrls1.bytesReadSys               24511488                       # Total read bytes from the system interface side
system.mem_ctrls1.bytesWrittenSys            20685440                       # Total written bytes from the system interface side
system.mem_ctrls1.servicedByWrQ                    21                       # Number of DRAM read bursts serviced by the write queue
system.mem_ctrls1.mergedWrBursts                    0                       # Number of DRAM write bursts merged with an existing one
system.mem_ctrls1.neitherReadNorWriteReqs            0                       # Number of requests that are neither read nor write
system.mem_ctrls1.perBankRdBursts::0            23653                       # Per bank write bursts
system.mem_ctrls1.perBankRdBursts::1            24331                       # Per bank write bursts
system.mem_ctrls1.perBankRdBursts::2            23897                       # Per bank write bursts
system.mem_ctrls1.perBankRdBursts::3            24204                       # Per bank write bursts
system.mem_ctrls1.perBankRdBursts::4            23873                       # Per bank write bursts
system.mem_ctrls1.perBankRdBursts::5            24189                       # Per bank write bursts
system.mem_ctrls1.perBankRdBursts::6            24234                       # Per bank write bursts
system.mem_ctrls1.perBankRdBursts::7            24045                       # Per bank write bursts
system.mem_ctrls1.perBankRdBursts::8            23920                       # Per bank write bursts
system.mem_ctrls1.perBankRdBursts::9            24039                       # Per bank write bursts
system.mem_ctrls1.perBankRdBursts::10           23809                       # Per bank write bursts
system.mem_ctrls1.perBankRdBursts::11           24342                       # Per bank write bursts
system.mem_ctrls1.perBankRdBursts::12           23593                       # Per bank write bursts
system.mem_ctrls1.perBankRdBursts::13           23492                       # Per bank write bursts
system.mem_ctrls1.perBankRdBursts::14           23598                       # Per bank write bursts
system.mem_ctrls1.perBankRdBursts::15           23752                       # Per bank write bursts
system.mem_ctrls1.perBankWrBursts::0            20219                       # Per bank write bursts
system.mem_ctrls1.perBankWrBursts::1            20145                       # Per bank write bursts
system.mem_ctrls1.perBankWrBursts::2            20150                       # Per bank write bursts
system.mem_ctrls1.perBankWrBursts::3            20440                       # Per bank write bursts
system.mem_ctrls1.perBankWrBursts::4            20032                       # Per bank write bursts
system.mem_ctrls1.perBankWrBursts::5            20349                       # Per bank write bursts
system.mem_ctrls1.perBankWrBursts::6            20335                       # Per bank write bursts
system.mem_ctrls1.perBankWrBursts::7            20304                       # Per bank write bursts
system.mem_ctrls1.perBankWrBursts::8            20410                       # Per bank write bursts
system.mem_ctrls1.perBankWrBursts::9            20190                       # Per bank write bursts
system.mem_ctrls1.perBankWrBursts::10           20100                       # Per bank write bursts
system.mem_ctrls1.perBankWrBursts::11           20146                       # Per bank write bursts
system.mem_ctrls1.perBankWrBursts::12           19944                       # Per bank write bursts
system.mem_ctrls1.perBankWrBursts::13           20190                       # Per bank write bursts
system.mem_ctrls1.perBankWrBursts::14           20159                       # Per bank write bursts
system.mem_ctrls1.perBankWrBursts::15           20094                       # Per bank write bursts
system.mem_ctrls1.numRdRetry                    48715                       # Number of times read queue was full causing retry
system.mem_ctrls1.numWrRetry                    10939                       # Number of times write queue was full causing retry
system.mem_ctrls1.totGap                 154062351500                       # Total gap between requests
system.mem_ctrls1.readPktSize::0                    0                       # Read request sizes (log2)
system.mem_ctrls1.readPktSize::1                    0                       # Read request sizes (log2)
system.mem_ctrls1.readPktSize::2                    0                       # Read request sizes (log2)
system.mem_ctrls1.readPktSize::3                    0                       # Read request sizes (log2)
system.mem_ctrls1.readPktSize::4                    0                       # Read request sizes (log2)
system.mem_ctrls1.readPktSize::5                    0                       # Read request sizes (log2)
system.mem_ctrls1.readPktSize::6               382992                       # Read request sizes (log2)
system.mem_ctrls1.writePktSize::0                   0                       # Write request sizes (log2)
system.mem_ctrls1.writePktSize::1                   0                       # Write request sizes (log2)
system.mem_ctrls1.writePktSize::2                   0                       # Write request sizes (log2)
system.mem_ctrls1.writePktSize::3                   0                       # Write request sizes (log2)
system.mem_ctrls1.writePktSize::4                   0                       # Write request sizes (log2)
system.mem_ctrls1.writePktSize::5                   0                       # Write request sizes (log2)
system.mem_ctrls1.writePktSize::6              323210                       # Write request sizes (log2)
system.mem_ctrls1.rdQLenPdf::0                 202772                       # What read queue length does an incoming req see
system.mem_ctrls1.rdQLenPdf::1                   5206                       # What read queue length does an incoming req see
system.mem_ctrls1.rdQLenPdf::2                   5064                       # What read queue length does an incoming req see
system.mem_ctrls1.rdQLenPdf::3                   5705                       # What read queue length does an incoming req see
system.mem_ctrls1.rdQLenPdf::4                   6016                       # What read queue length does an incoming req see
system.mem_ctrls1.rdQLenPdf::5                   6085                       # What read queue length does an incoming req see
system.mem_ctrls1.rdQLenPdf::6                   6040                       # What read queue length does an incoming req see
system.mem_ctrls1.rdQLenPdf::7                   5650                       # What read queue length does an incoming req see
system.mem_ctrls1.rdQLenPdf::8                   5322                       # What read queue length does an incoming req see
system.mem_ctrls1.rdQLenPdf::9                   5142                       # What read queue length does an incoming req see
system.mem_ctrls1.rdQLenPdf::10                  4915                       # What read queue length does an incoming req see
system.mem_ctrls1.rdQLenPdf::11                  4656                       # What read queue length does an incoming req see
system.mem_ctrls1.rdQLenPdf::12                  4507                       # What read queue length does an incoming req see
system.mem_ctrls1.rdQLenPdf::13                  4320                       # What read queue length does an incoming req see
system.mem_ctrls1.rdQLenPdf::14                  4127                       # What read queue length does an incoming req see
system.mem_ctrls1.rdQLenPdf::15                  4051                       # What read queue length does an incoming req see
system.mem_ctrls1.rdQLenPdf::16                  3892                       # What read queue length does an incoming req see
system.mem_ctrls1.rdQLenPdf::17                  3742                       # What read queue length does an incoming req see
system.mem_ctrls1.rdQLenPdf::18                  3685                       # What read queue length does an incoming req see
system.mem_ctrls1.rdQLenPdf::19                  3499                       # What read queue length does an incoming req see
system.mem_ctrls1.rdQLenPdf::20                  3416                       # What read queue length does an incoming req see
system.mem_ctrls1.rdQLenPdf::21                  3312                       # What read queue length does an incoming req see
system.mem_ctrls1.rdQLenPdf::22                  3207                       # What read queue length does an incoming req see
system.mem_ctrls1.rdQLenPdf::23                  3123                       # What read queue length does an incoming req see
system.mem_ctrls1.rdQLenPdf::24                  3016                       # What read queue length does an incoming req see
system.mem_ctrls1.rdQLenPdf::25                  3002                       # What read queue length does an incoming req see
system.mem_ctrls1.rdQLenPdf::26                  3069                       # What read queue length does an incoming req see
system.mem_ctrls1.rdQLenPdf::27                  3210                       # What read queue length does an incoming req see
system.mem_ctrls1.rdQLenPdf::28                  3283                       # What read queue length does an incoming req see
system.mem_ctrls1.rdQLenPdf::29                  3309                       # What read queue length does an incoming req see
system.mem_ctrls1.rdQLenPdf::30                  3539                       # What read queue length does an incoming req see
system.mem_ctrls1.rdQLenPdf::31                 53089                       # What read queue length does an incoming req see
system.mem_ctrls1.wrQLenPdf::0                  48244                       # What write queue length does an incoming req see
system.mem_ctrls1.wrQLenPdf::1                  53177                       # What write queue length does an incoming req see
system.mem_ctrls1.wrQLenPdf::2                  55177                       # What write queue length does an incoming req see
system.mem_ctrls1.wrQLenPdf::3                  55513                       # What write queue length does an incoming req see
system.mem_ctrls1.wrQLenPdf::4                  55857                       # What write queue length does an incoming req see
system.mem_ctrls1.wrQLenPdf::5                  15331                       # What write queue length does an incoming req see
system.mem_ctrls1.wrQLenPdf::6                  16554                       # What write queue length does an incoming req see
system.mem_ctrls1.wrQLenPdf::7                  23357                       # What write queue length does an incoming req see
system.mem_ctrls1.bytesPerActivate::samples       188369                       # Bytes accessed per row activation
system.mem_ctrls1.bytesPerActivate::mean   239.924319                       # Bytes accessed per row activation
system.mem_ctrls1.bytesPerActivate::gmean   188.525003                       # Bytes accessed per row activation
system.mem_ctrls1.bytesPerActivate::stdev   172.721433                       # Bytes accessed per row activation
system.mem_ctrls1.bytesPerActivate::0-127        40910     21.72%     21.72% # Bytes accessed per row activation
system.mem_ctrls1.bytesPerActivate::128-255        55374     29.40%     51.11% # Bytes accessed per row activation
system.mem_ctrls1.bytesPerActivate::256-383        69051     36.66%     87.77% # Bytes accessed per row activation
system.mem_ctrls1.bytesPerActivate::384-511         9468      5.03%     92.80% # Bytes accessed per row activation
system.mem_ctrls1.bytesPerActivate::512-639         6043      3.21%     96.01% # Bytes accessed per row activation
system.mem_ctrls1.bytesPerActivate::640-767         2628      1.40%     97.40% # Bytes accessed per row activation
system.mem_ctrls1.bytesPerActivate::768-895         1603      0.85%     98.25% # Bytes accessed per row activation
system.mem_ctrls1.bytesPerActivate::896-1023         1117      0.59%     98.85% # Bytes accessed per row activation
system.mem_ctrls1.bytesPerActivate::1024-1151         2175      1.15%    100.00% # Bytes accessed per row activation
system.mem_ctrls1.bytesPerActivate::total       188369                       # Bytes accessed per row activation
system.mem_ctrls1.rdPerTurnAround::samples        49985                       # Reads before turning the bus around for writes
system.mem_ctrls1.rdPerTurnAround::mean      7.661518                       # Reads before turning the bus around for writes
system.mem_ctrls1.rdPerTurnAround::stdev    15.309365                       # Reads before turning the bus around for writes
system.mem_ctrls1.rdPerTurnAround::0-127        49979     99.99%     99.99% # Reads before turning the bus around for writes
system.mem_ctrls1.rdPerTurnAround::128-255            4      0.01%    100.00% # Reads before turning the bus around for writes
system.mem_ctrls1.rdPerTurnAround::1152-1279            1      0.00%    100.00% # Reads before turning the bus around for writes
system.mem_ctrls1.rdPerTurnAround::2816-2943            1      0.00%    100.00% # Reads before turning the bus around for writes
system.mem_ctrls1.rdPerTurnAround::total        49985                       # Reads before turning the bus around for writes
system.mem_ctrls1.wrPerTurnAround::samples        49985                       # Writes before turning the bus around for reads
system.mem_ctrls1.wrPerTurnAround::mean      6.466080                       # Writes before turning the bus around for reads
system.mem_ctrls1.wrPerTurnAround::gmean     5.962671                       # Writes before turning the bus around for reads
system.mem_ctrls1.wrPerTurnAround::stdev     3.184591                       # Writes before turning the bus around for reads
system.mem_ctrls1.wrPerTurnAround::4-7          40541     81.11%     81.11% # Writes before turning the bus around for reads
system.mem_ctrls1.wrPerTurnAround::8-11          3794      7.59%     88.70% # Writes before turning the bus around for reads
system.mem_ctrls1.wrPerTurnAround::12-15         3198      6.40%     95.09% # Writes before turning the bus around for reads
system.mem_ctrls1.wrPerTurnAround::16-19         2452      4.91%    100.00% # Writes before turning the bus around for reads
system.mem_ctrls1.wrPerTurnAround::total        49985                       # Writes before turning the bus around for reads
system.mem_ctrls1.totQLat                 44590237978                       # Total ticks spent queuing
system.mem_ctrls1.totMemAccLat            51770944228                       # Total ticks spent from burst creation until serviced by the DRAM
system.mem_ctrls1.totBusLat                1914855000                       # Total ticks spent in databus transfers
system.mem_ctrls1.avgQLat                   116432.41                       # Average queueing delay per DRAM burst
system.mem_ctrls1.avgBusLat                   5000.00                       # Average bus latency per DRAM burst
system.mem_ctrls1.avgMemAccLat              135182.41                       # Average memory access latency per DRAM burst
system.mem_ctrls1.avgRdBW                      159.09                       # Average DRAM read bandwidth in MiByte/s
system.mem_ctrls1.avgWrBW                      134.26                       # Average achieved write bandwidth in MiByte/s
system.mem_ctrls1.avgRdBWSys                   159.10                       # Average system read bandwidth in MiByte/s
system.mem_ctrls1.avgWrBWSys                   134.27                       # Average system write bandwidth in MiByte/s
system.mem_ctrls1.peakBW                     12800.00                       # Theoretical peak bandwidth in MiByte/s
system.mem_ctrls1.busUtil                        2.29                       # Data bus utilization in percentage
system.mem_ctrls1.busUtilRead                    1.24                       # Data bus utilization in percentage for reads
system.mem_ctrls1.busUtilWrite                   1.05                       # Data bus utilization in percentage for writes
system.mem_ctrls1.avgRdQLen                      1.30                       # Average read queue length when enqueuing
system.mem_ctrls1.avgWrQLen                      2.99                       # Average write queue length when enqueuing
system.mem_ctrls1.readRowHits                  289026                       # Number of row buffer hits during reads
system.mem_ctrls1.writeRowHits                 228774                       # Number of row buffer hits during writes
system.mem_ctrls1.readRowHitRate                75.47                       # Row buffer hit rate for reads
system.mem_ctrls1.writeRowHitRate               70.78                       # Row buffer hit rate for writes
system.mem_ctrls1.avgGap                    218156.21                       # Average gap between requests
system.mem_ctrls1.pageHitRate                   73.32                       # Row buffer hit rate, read and write combined
system.mem_ctrls1.memoryStateTime::IDLE   27042157250                       # Time in different power states
system.mem_ctrls1.memoryStateTime::REF     5144360000                       # Time in different power states
system.mem_ctrls1.memoryStateTime::PRE_PDN            0                       # Time in different power states
system.mem_ctrls1.memoryStateTime::ACT   121872499000                       # Time in different power states
system.mem_ctrls1.memoryStateTime::ACT_PDN            0                       # Time in different power states
system.mem_ctrls1.actEnergy::0              716650200                       # Energy for activate commands per rank (pJ)
system.mem_ctrls1.actEnergy::1              707381640                       # Energy for activate commands per rank (pJ)
system.mem_ctrls1.preEnergy::0              391029375                       # Energy for precharge commands per rank (pJ)
system.mem_ctrls1.preEnergy::1              385972125                       # Energy for precharge commands per rank (pJ)
system.mem_ctrls1.readEnergy::0            1500844800                       # Energy for read commands per rank (pJ)
system.mem_ctrls1.readEnergy::1            1486196400                       # Energy for read commands per rank (pJ)
system.mem_ctrls1.writeEnergy::0           1049559120                       # Energy for write commands per rank (pJ)
system.mem_ctrls1.writeEnergy::1           1044757440                       # Energy for write commands per rank (pJ)
system.mem_ctrls1.refreshEnergy::0        10062368160                       # Energy for refresh commands per rank (pJ)
system.mem_ctrls1.refreshEnergy::1        10062368160                       # Energy for refresh commands per rank (pJ)
system.mem_ctrls1.actBackEnergy::0        60248722410                       # Energy for active background per rank (pJ)
system.mem_ctrls1.actBackEnergy::1        59774742900                       # Energy for active background per rank (pJ)
system.mem_ctrls1.preBackEnergy::0        39585645000                       # Energy for precharge background per rank (pJ)
system.mem_ctrls1.preBackEnergy::1        40001416500                       # Energy for precharge background per rank (pJ)
system.mem_ctrls1.totalEnergy::0         113554819065                       # Total energy per rank (pJ)
system.mem_ctrls1.totalEnergy::1         113462835165                       # Total energy per rank (pJ)
system.mem_ctrls1.averagePower::0          737.086553                       # Core power per rank (mW)
system.mem_ctrls1.averagePower::1          736.489483                       # Core power per rank (mW)
system.mem_ctrls2.bytes_read::ruby.dir_cntrl2     24511616                       # Number of bytes read from this memory
system.mem_ctrls2.bytes_read::total          24511616                       # Number of bytes read from this memory
system.mem_ctrls2.bytes_written::ruby.dir_cntrl2     20686464                       # Number of bytes written to this memory
system.mem_ctrls2.bytes_written::total       20686464                       # Number of bytes written to this memory
system.mem_ctrls2.num_reads::ruby.dir_cntrl2       382994                       # Number of read requests responded to by this memory
system.mem_ctrls2.num_reads::total             382994                       # Number of read requests responded to by this memory
system.mem_ctrls2.num_writes::ruby.dir_cntrl2       323226                       # Number of write requests responded to by this memory
system.mem_ctrls2.num_writes::total            323226                       # Number of write requests responded to by this memory
system.mem_ctrls2.bw_read::ruby.dir_cntrl2    159101141                       # Total read bandwidth from this memory (bytes/s)
system.mem_ctrls2.bw_read::total            159101141                       # Total read bandwidth from this memory (bytes/s)
system.mem_ctrls2.bw_write::ruby.dir_cntrl2    134272666                       # Write bandwidth from this memory (bytes/s)
system.mem_ctrls2.bw_write::total           134272666                       # Write bandwidth from this memory (bytes/s)
system.mem_ctrls2.bw_total::ruby.dir_cntrl2    293373807                       # Total bandwidth to/from this memory (bytes/s)
system.mem_ctrls2.bw_total::total           293373807                       # Total bandwidth to/from this memory (bytes/s)
system.mem_ctrls2.readReqs                     382994                       # Number of read requests accepted
system.mem_ctrls2.writeReqs                    323226                       # Number of write requests accepted
system.mem_ctrls2.readBursts                   382994                       # Number of DRAM read bursts, including those serviced by the write queue
system.mem_ctrls2.writeBursts                  323226                       # Number of DRAM write bursts, including those merged in the write queue
system.mem_ctrls2.bytesReadDRAM              24510400                       # Total number of bytes read from DRAM
system.mem_ctrls2.bytesReadWrQ                   1216                       # Total number of bytes read from write queue
system.mem_ctrls2.bytesWritten               20686400                       # Total number of bytes written to DRAM
system.mem_ctrls2.bytesReadSys               24511616                       # Total read bytes from the system interface side
system.mem_ctrls2.bytesWrittenSys            20686464                       # Total written bytes from the system interface side
system.mem_ctrls2.servicedByWrQ                    19                       # Number of DRAM read bursts serviced by the write queue
system.mem_ctrls2.mergedWrBursts                    0                       # Number of DRAM write bursts merged with an existing one
system.mem_ctrls2.neitherReadNorWriteReqs            0                       # Number of requests that are neither read nor write
system.mem_ctrls2.perBankRdBursts::0            23640                       # Per bank write bursts
system.mem_ctrls2.perBankRdBursts::1            24305                       # Per bank write bursts
system.mem_ctrls2.perBankRdBursts::2            23941                       # Per bank write bursts
system.mem_ctrls2.perBankRdBursts::3            24276                       # Per bank write bursts
system.mem_ctrls2.perBankRdBursts::4            23872                       # Per bank write bursts
system.mem_ctrls2.perBankRdBursts::5            24157                       # Per bank write bursts
system.mem_ctrls2.perBankRdBursts::6            24234                       # Per bank write bursts
system.mem_ctrls2.perBankRdBursts::7            24031                       # Per bank write bursts
system.mem_ctrls2.perBankRdBursts::8            23901                       # Per bank write bursts
system.mem_ctrls2.perBankRdBursts::9            24050                       # Per bank write bursts
system.mem_ctrls2.perBankRdBursts::10           23815                       # Per bank write bursts
system.mem_ctrls2.perBankRdBursts::11           24323                       # Per bank write bursts
system.mem_ctrls2.perBankRdBursts::12           23625                       # Per bank write bursts
system.mem_ctrls2.perBankRdBursts::13           23436                       # Per bank write bursts
system.mem_ctrls2.perBankRdBursts::14           23589                       # Per bank write bursts
system.mem_ctrls2.perBankRdBursts::15           23780                       # Per bank write bursts
system.mem_ctrls2.perBankWrBursts::0            20213                       # Per bank write bursts
system.mem_ctrls2.perBankWrBursts::1            20142                       # Per bank write bursts
system.mem_ctrls2.perBankWrBursts::2            20153                       # Per bank write bursts
system.mem_ctrls2.perBankWrBursts::3            20445                       # Per bank write bursts
system.mem_ctrls2.perBankWrBursts::4            20035                       # Per bank write bursts
system.mem_ctrls2.perBankWrBursts::5            20332                       # Per bank write bursts
system.mem_ctrls2.perBankWrBursts::6            20342                       # Per bank write bursts
system.mem_ctrls2.perBankWrBursts::7            20313                       # Per bank write bursts
system.mem_ctrls2.perBankWrBursts::8            20411                       # Per bank write bursts
system.mem_ctrls2.perBankWrBursts::9            20195                       # Per bank write bursts
system.mem_ctrls2.perBankWrBursts::10           20090                       # Per bank write bursts
system.mem_ctrls2.perBankWrBursts::11           20143                       # Per bank write bursts
system.mem_ctrls2.perBankWrBursts::12           19951                       # Per bank write bursts
system.mem_ctrls2.perBankWrBursts::13           20187                       # Per bank write bursts
system.mem_ctrls2.perBankWrBursts::14           20164                       # Per bank write bursts
system.mem_ctrls2.perBankWrBursts::15           20109                       # Per bank write bursts
system.mem_ctrls2.numRdRetry                    46305                       # Number of times read queue was full causing retry
system.mem_ctrls2.numWrRetry                    10919                       # Number of times write queue was full causing retry
system.mem_ctrls2.totGap                 154062277000                       # Total gap between requests
system.mem_ctrls2.readPktSize::0                    0                       # Read request sizes (log2)
system.mem_ctrls2.readPktSize::1                    0                       # Read request sizes (log2)
system.mem_ctrls2.readPktSize::2                    0                       # Read request sizes (log2)
system.mem_ctrls2.readPktSize::3                    0                       # Read request sizes (log2)
system.mem_ctrls2.readPktSize::4                    0                       # Read request sizes (log2)
system.mem_ctrls2.readPktSize::5                    0                       # Read request sizes (log2)
system.mem_ctrls2.readPktSize::6               382994                       # Read request sizes (log2)
system.mem_ctrls2.writePktSize::0                   0                       # Write request sizes (log2)
system.mem_ctrls2.writePktSize::1                   0                       # Write request sizes (log2)
system.mem_ctrls2.writePktSize::2                   0                       # Write request sizes (log2)
system.mem_ctrls2.writePktSize::3                   0                       # Write request sizes (log2)
system.mem_ctrls2.writePktSize::4                   0                       # Write request sizes (log2)
system.mem_ctrls2.writePktSize::5                   0                       # Write request sizes (log2)
system.mem_ctrls2.writePktSize::6              323226                       # Write request sizes (log2)
system.mem_ctrls2.rdQLenPdf::0                 203109                       # What read queue length does an incoming req see
system.mem_ctrls2.rdQLenPdf::1                   4985                       # What read queue length does an incoming req see
system.mem_ctrls2.rdQLenPdf::2                   4976                       # What read queue length does an incoming req see
system.mem_ctrls2.rdQLenPdf::3                   5650                       # What read queue length does an incoming req see
system.mem_ctrls2.rdQLenPdf::4                   6101                       # What read queue length does an incoming req see
system.mem_ctrls2.rdQLenPdf::5                   6211                       # What read queue length does an incoming req see
system.mem_ctrls2.rdQLenPdf::6                   6038                       # What read queue length does an incoming req see
system.mem_ctrls2.rdQLenPdf::7                   5680                       # What read queue length does an incoming req see
system.mem_ctrls2.rdQLenPdf::8                   5527                       # What read queue length does an incoming req see
system.mem_ctrls2.rdQLenPdf::9                   5350                       # What read queue length does an incoming req see
system.mem_ctrls2.rdQLenPdf::10                  5125                       # What read queue length does an incoming req see
system.mem_ctrls2.rdQLenPdf::11                  4849                       # What read queue length does an incoming req see
system.mem_ctrls2.rdQLenPdf::12                  4656                       # What read queue length does an incoming req see
system.mem_ctrls2.rdQLenPdf::13                  4470                       # What read queue length does an incoming req see
system.mem_ctrls2.rdQLenPdf::14                  4335                       # What read queue length does an incoming req see
system.mem_ctrls2.rdQLenPdf::15                  4108                       # What read queue length does an incoming req see
system.mem_ctrls2.rdQLenPdf::16                  3981                       # What read queue length does an incoming req see
system.mem_ctrls2.rdQLenPdf::17                  3982                       # What read queue length does an incoming req see
system.mem_ctrls2.rdQLenPdf::18                  3793                       # What read queue length does an incoming req see
system.mem_ctrls2.rdQLenPdf::19                  3736                       # What read queue length does an incoming req see
system.mem_ctrls2.rdQLenPdf::20                  3450                       # What read queue length does an incoming req see
system.mem_ctrls2.rdQLenPdf::21                  3318                       # What read queue length does an incoming req see
system.mem_ctrls2.rdQLenPdf::22                  3287                       # What read queue length does an incoming req see
system.mem_ctrls2.rdQLenPdf::23                  3155                       # What read queue length does an incoming req see
system.mem_ctrls2.rdQLenPdf::24                  3054                       # What read queue length does an incoming req see
system.mem_ctrls2.rdQLenPdf::25                  3081                       # What read queue length does an incoming req see
system.mem_ctrls2.rdQLenPdf::26                  2998                       # What read queue length does an incoming req see
system.mem_ctrls2.rdQLenPdf::27                  3058                       # What read queue length does an incoming req see
system.mem_ctrls2.rdQLenPdf::28                  3194                       # What read queue length does an incoming req see
system.mem_ctrls2.rdQLenPdf::29                  3343                       # What read queue length does an incoming req see
system.mem_ctrls2.rdQLenPdf::30                  3609                       # What read queue length does an incoming req see
system.mem_ctrls2.rdQLenPdf::31                 50766                       # What read queue length does an incoming req see
system.mem_ctrls2.wrQLenPdf::0                  48198                       # What write queue length does an incoming req see
system.mem_ctrls2.wrQLenPdf::1                  53030                       # What write queue length does an incoming req see
system.mem_ctrls2.wrQLenPdf::2                  55185                       # What write queue length does an incoming req see
system.mem_ctrls2.wrQLenPdf::3                  55554                       # What write queue length does an incoming req see
system.mem_ctrls2.wrQLenPdf::4                  55769                       # What write queue length does an incoming req see
system.mem_ctrls2.wrQLenPdf::5                  15296                       # What write queue length does an incoming req see
system.mem_ctrls2.wrQLenPdf::6                  16686                       # What write queue length does an incoming req see
system.mem_ctrls2.wrQLenPdf::7                  23508                       # What write queue length does an incoming req see
system.mem_ctrls2.bytesPerActivate::samples       187643                       # Bytes accessed per row activation
system.mem_ctrls2.bytesPerActivate::mean   240.862148                       # Bytes accessed per row activation
system.mem_ctrls2.bytesPerActivate::gmean   189.646255                       # Bytes accessed per row activation
system.mem_ctrls2.bytesPerActivate::stdev   172.643600                       # Bytes accessed per row activation
system.mem_ctrls2.bytesPerActivate::0-127        40020     21.33%     21.33% # Bytes accessed per row activation
system.mem_ctrls2.bytesPerActivate::128-255        54667     29.13%     50.46% # Bytes accessed per row activation
system.mem_ctrls2.bytesPerActivate::256-383        69953     37.28%     87.74% # Bytes accessed per row activation
system.mem_ctrls2.bytesPerActivate::384-511         9502      5.06%     92.80% # Bytes accessed per row activation
system.mem_ctrls2.bytesPerActivate::512-639         5933      3.16%     95.97% # Bytes accessed per row activation
system.mem_ctrls2.bytesPerActivate::640-767         2624      1.40%     97.37% # Bytes accessed per row activation
system.mem_ctrls2.bytesPerActivate::768-895         1624      0.87%     98.23% # Bytes accessed per row activation
system.mem_ctrls2.bytesPerActivate::896-1023         1141      0.61%     98.84% # Bytes accessed per row activation
system.mem_ctrls2.bytesPerActivate::1024-1151         2179      1.16%    100.00% # Bytes accessed per row activation
system.mem_ctrls2.bytesPerActivate::total       187643                       # Bytes accessed per row activation
system.mem_ctrls2.rdPerTurnAround::samples        49984                       # Reads before turning the bus around for writes
system.mem_ctrls2.rdPerTurnAround::mean      7.661912                       # Reads before turning the bus around for writes
system.mem_ctrls2.rdPerTurnAround::stdev    15.368981                       # Reads before turning the bus around for writes
system.mem_ctrls2.rdPerTurnAround::0-127        49978     99.99%     99.99% # Reads before turning the bus around for writes
system.mem_ctrls2.rdPerTurnAround::128-255            4      0.01%    100.00% # Reads before turning the bus around for writes
system.mem_ctrls2.rdPerTurnAround::1152-1279            1      0.00%    100.00% # Reads before turning the bus around for writes
system.mem_ctrls2.rdPerTurnAround::2816-2943            1      0.00%    100.00% # Reads before turning the bus around for writes
system.mem_ctrls2.rdPerTurnAround::total        49984                       # Reads before turning the bus around for writes
system.mem_ctrls2.wrPerTurnAround::samples        49984                       # Writes before turning the bus around for reads
system.mem_ctrls2.wrPerTurnAround::mean      6.466569                       # Writes before turning the bus around for reads
system.mem_ctrls2.wrPerTurnAround::gmean     5.963917                       # Writes before turning the bus around for reads
system.mem_ctrls2.wrPerTurnAround::stdev     3.181724                       # Writes before turning the bus around for reads
system.mem_ctrls2.wrPerTurnAround::4-7          40483     80.99%     80.99% # Writes before turning the bus around for reads
system.mem_ctrls2.wrPerTurnAround::8-11          3902      7.81%     88.80% # Writes before turning the bus around for reads
system.mem_ctrls2.wrPerTurnAround::12-15         3128      6.26%     95.06% # Writes before turning the bus around for reads
system.mem_ctrls2.wrPerTurnAround::16-19         2471      4.94%    100.00% # Writes before turning the bus around for reads
system.mem_ctrls2.wrPerTurnAround::total        49984                       # Writes before turning the bus around for reads
system.mem_ctrls2.totQLat                 44165158910                       # Total ticks spent queuing
system.mem_ctrls2.totMemAccLat            51345940160                       # Total ticks spent from burst creation until serviced by the DRAM
system.mem_ctrls2.totBusLat                1914875000                       # Total ticks spent in databus transfers
system.mem_ctrls2.avgQLat                   115321.26                       # Average queueing delay per DRAM burst
system.mem_ctrls2.avgBusLat                   5000.00                       # Average bus latency per DRAM burst
system.mem_ctrls2.avgMemAccLat              134071.26                       # Average memory access latency per DRAM burst
system.mem_ctrls2.avgRdBW                      159.09                       # Average DRAM read bandwidth in MiByte/s
system.mem_ctrls2.avgWrBW                      134.27                       # Average achieved write bandwidth in MiByte/s
system.mem_ctrls2.avgRdBWSys                   159.10                       # Average system read bandwidth in MiByte/s
system.mem_ctrls2.avgWrBWSys                   134.27                       # Average system write bandwidth in MiByte/s
system.mem_ctrls2.peakBW                     12800.00                       # Theoretical peak bandwidth in MiByte/s
system.mem_ctrls2.busUtil                        2.29                       # Data bus utilization in percentage
system.mem_ctrls2.busUtilRead                    1.24                       # Data bus utilization in percentage for reads
system.mem_ctrls2.busUtilWrite                   1.05                       # Data bus utilization in percentage for writes
system.mem_ctrls2.avgRdQLen                      1.30                       # Average read queue length when enqueuing
system.mem_ctrls2.avgWrQLen                      3.00                       # Average write queue length when enqueuing
system.mem_ctrls2.readRowHits                  289161                       # Number of row buffer hits during reads
system.mem_ctrls2.writeRowHits                 229386                       # Number of row buffer hits during writes
system.mem_ctrls2.readRowHitRate                75.50                       # Row buffer hit rate for reads
system.mem_ctrls2.writeRowHitRate               70.97                       # Row buffer hit rate for writes
system.mem_ctrls2.avgGap                    218150.54                       # Average gap between requests
system.mem_ctrls2.pageHitRate                   73.43                       # Row buffer hit rate, read and write combined
system.mem_ctrls2.memoryStateTime::IDLE   27138745750                       # Time in different power states
system.mem_ctrls2.memoryStateTime::REF     5144360000                       # Time in different power states
system.mem_ctrls2.memoryStateTime::PRE_PDN            0                       # Time in different power states
system.mem_ctrls2.memoryStateTime::ACT   121775910500                       # Time in different power states
system.mem_ctrls2.memoryStateTime::ACT_PDN            0                       # Time in different power states
system.mem_ctrls2.actEnergy::0              714918960                       # Energy for activate commands per rank (pJ)
system.mem_ctrls2.actEnergy::1              703601640                       # Energy for activate commands per rank (pJ)
system.mem_ctrls2.preEnergy::0              390084750                       # Energy for precharge commands per rank (pJ)
system.mem_ctrls2.preEnergy::1              383909625                       # Energy for precharge commands per rank (pJ)
system.mem_ctrls2.readEnergy::0            1501094400                       # Energy for read commands per rank (pJ)
system.mem_ctrls2.readEnergy::1            1486001400                       # Energy for read commands per rank (pJ)
system.mem_ctrls2.writeEnergy::0           1049565600                       # Energy for write commands per rank (pJ)
system.mem_ctrls2.writeEnergy::1           1044867600                       # Energy for write commands per rank (pJ)
system.mem_ctrls2.refreshEnergy::0        10062368160                       # Energy for refresh commands per rank (pJ)
system.mem_ctrls2.refreshEnergy::1        10062368160                       # Energy for refresh commands per rank (pJ)
system.mem_ctrls2.actBackEnergy::0        59826245535                       # Energy for active background per rank (pJ)
system.mem_ctrls2.actBackEnergy::1        59364345465                       # Energy for active background per rank (pJ)
system.mem_ctrls2.preBackEnergy::0        39956238750                       # Energy for precharge background per rank (pJ)
system.mem_ctrls2.preBackEnergy::1        40361414250                       # Energy for precharge background per rank (pJ)
system.mem_ctrls2.totalEnergy::0         113500516155                       # Total energy per rank (pJ)
system.mem_ctrls2.totalEnergy::1         113406508140                       # Total energy per rank (pJ)
system.mem_ctrls2.averagePower::0          736.734071                       # Core power per rank (mW)
system.mem_ctrls2.averagePower::1          736.123864                       # Core power per rank (mW)
system.mem_ctrls3.bytes_read::ruby.dir_cntrl3     24491968                       # Number of bytes read from this memory
system.mem_ctrls3.bytes_read::total          24491968                       # Number of bytes read from this memory
system.mem_ctrls3.bytes_written::ruby.dir_cntrl3     20684864                       # Number of bytes written to this memory
system.mem_ctrls3.bytes_written::total       20684864                       # Number of bytes written to this memory
system.mem_ctrls3.num_reads::ruby.dir_cntrl3       382687                       # Number of read requests responded to by this memory
system.mem_ctrls3.num_reads::total             382687                       # Number of read requests responded to by this memory
system.mem_ctrls3.num_writes::ruby.dir_cntrl3       323201                       # Number of write requests responded to by this memory
system.mem_ctrls3.num_writes::total            323201                       # Number of write requests responded to by this memory
system.mem_ctrls3.bw_read::ruby.dir_cntrl3    158973609                       # Total read bandwidth from this memory (bytes/s)
system.mem_ctrls3.bw_read::total            158973609                       # Total read bandwidth from this memory (bytes/s)
system.mem_ctrls3.bw_write::ruby.dir_cntrl3    134262281                       # Write bandwidth from this memory (bytes/s)
system.mem_ctrls3.bw_write::total           134262281                       # Write bandwidth from this memory (bytes/s)
system.mem_ctrls3.bw_total::ruby.dir_cntrl3    293235890                       # Total bandwidth to/from this memory (bytes/s)
system.mem_ctrls3.bw_total::total           293235890                       # Total bandwidth to/from this memory (bytes/s)
system.mem_ctrls3.readReqs                     382687                       # Number of read requests accepted
system.mem_ctrls3.writeReqs                    323201                       # Number of write requests accepted
system.mem_ctrls3.readBursts                   382687                       # Number of DRAM read bursts, including those serviced by the write queue
system.mem_ctrls3.writeBursts                  323201                       # Number of DRAM write bursts, including those merged in the write queue
system.mem_ctrls3.bytesReadDRAM              24491328                       # Total number of bytes read from DRAM
system.mem_ctrls3.bytesReadWrQ                    640                       # Total number of bytes read from write queue
system.mem_ctrls3.bytesWritten               20684800                       # Total number of bytes written to DRAM
system.mem_ctrls3.bytesReadSys               24491968                       # Total read bytes from the system interface side
system.mem_ctrls3.bytesWrittenSys            20684864                       # Total written bytes from the system interface side
system.mem_ctrls3.servicedByWrQ                    10                       # Number of DRAM read bursts serviced by the write queue
system.mem_ctrls3.mergedWrBursts                    0                       # Number of DRAM write bursts merged with an existing one
system.mem_ctrls3.neitherReadNorWriteReqs            0                       # Number of requests that are neither read nor write
system.mem_ctrls3.perBankRdBursts::0            23630                       # Per bank write bursts
system.mem_ctrls3.perBankRdBursts::1            24304                       # Per bank write bursts
system.mem_ctrls3.perBankRdBursts::2            23817                       # Per bank write bursts
system.mem_ctrls3.perBankRdBursts::3            24238                       # Per bank write bursts
system.mem_ctrls3.perBankRdBursts::4            23816                       # Per bank write bursts
system.mem_ctrls3.perBankRdBursts::5            24167                       # Per bank write bursts
system.mem_ctrls3.perBankRdBursts::6            24229                       # Per bank write bursts
system.mem_ctrls3.perBankRdBursts::7            24037                       # Per bank write bursts
system.mem_ctrls3.perBankRdBursts::8            23888                       # Per bank write bursts
system.mem_ctrls3.perBankRdBursts::9            24027                       # Per bank write bursts
system.mem_ctrls3.perBankRdBursts::10           23882                       # Per bank write bursts
system.mem_ctrls3.perBankRdBursts::11           24278                       # Per bank write bursts
system.mem_ctrls3.perBankRdBursts::12           23558                       # Per bank write bursts
system.mem_ctrls3.perBankRdBursts::13           23448                       # Per bank write bursts
system.mem_ctrls3.perBankRdBursts::14           23607                       # Per bank write bursts
system.mem_ctrls3.perBankRdBursts::15           23751                       # Per bank write bursts
system.mem_ctrls3.perBankWrBursts::0            20217                       # Per bank write bursts
system.mem_ctrls3.perBankWrBursts::1            20139                       # Per bank write bursts
system.mem_ctrls3.perBankWrBursts::2            20157                       # Per bank write bursts
system.mem_ctrls3.perBankWrBursts::3            20433                       # Per bank write bursts
system.mem_ctrls3.perBankWrBursts::4            20029                       # Per bank write bursts
system.mem_ctrls3.perBankWrBursts::5            20334                       # Per bank write bursts
system.mem_ctrls3.perBankWrBursts::6            20344                       # Per bank write bursts
system.mem_ctrls3.perBankWrBursts::7            20301                       # Per bank write bursts
system.mem_ctrls3.perBankWrBursts::8            20407                       # Per bank write bursts
system.mem_ctrls3.perBankWrBursts::9            20194                       # Per bank write bursts
system.mem_ctrls3.perBankWrBursts::10           20089                       # Per bank write bursts
system.mem_ctrls3.perBankWrBursts::11           20155                       # Per bank write bursts
system.mem_ctrls3.perBankWrBursts::12           19949                       # Per bank write bursts
system.mem_ctrls3.perBankWrBursts::13           20195                       # Per bank write bursts
system.mem_ctrls3.perBankWrBursts::14           20168                       # Per bank write bursts
system.mem_ctrls3.perBankWrBursts::15           20089                       # Per bank write bursts
system.mem_ctrls3.numRdRetry                    44389                       # Number of times read queue was full causing retry
system.mem_ctrls3.numWrRetry                    10661                       # Number of times write queue was full causing retry
system.mem_ctrls3.totGap                 154061983000                       # Total gap between requests
system.mem_ctrls3.readPktSize::0                    0                       # Read request sizes (log2)
system.mem_ctrls3.readPktSize::1                    0                       # Read request sizes (log2)
system.mem_ctrls3.readPktSize::2                    0                       # Read request sizes (log2)
system.mem_ctrls3.readPktSize::3                    0                       # Read request sizes (log2)
system.mem_ctrls3.readPktSize::4                    0                       # Read request sizes (log2)
system.mem_ctrls3.readPktSize::5                    0                       # Read request sizes (log2)
system.mem_ctrls3.readPktSize::6               382687                       # Read request sizes (log2)
system.mem_ctrls3.writePktSize::0                   0                       # Write request sizes (log2)
system.mem_ctrls3.writePktSize::1                   0                       # Write request sizes (log2)
system.mem_ctrls3.writePktSize::2                   0                       # Write request sizes (log2)
system.mem_ctrls3.writePktSize::3                   0                       # Write request sizes (log2)
system.mem_ctrls3.writePktSize::4                   0                       # Write request sizes (log2)
system.mem_ctrls3.writePktSize::5                   0                       # Write request sizes (log2)
system.mem_ctrls3.writePktSize::6              323201                       # Write request sizes (log2)
system.mem_ctrls3.rdQLenPdf::0                 202685                       # What read queue length does an incoming req see
system.mem_ctrls3.rdQLenPdf::1                   5072                       # What read queue length does an incoming req see
system.mem_ctrls3.rdQLenPdf::2                   5027                       # What read queue length does an incoming req see
system.mem_ctrls3.rdQLenPdf::3                   5507                       # What read queue length does an incoming req see
system.mem_ctrls3.rdQLenPdf::4                   5899                       # What read queue length does an incoming req see
system.mem_ctrls3.rdQLenPdf::5                   6285                       # What read queue length does an incoming req see
system.mem_ctrls3.rdQLenPdf::6                   6106                       # What read queue length does an incoming req see
system.mem_ctrls3.rdQLenPdf::7                   5868                       # What read queue length does an incoming req see
system.mem_ctrls3.rdQLenPdf::8                   5615                       # What read queue length does an incoming req see
system.mem_ctrls3.rdQLenPdf::9                   5373                       # What read queue length does an incoming req see
system.mem_ctrls3.rdQLenPdf::10                  5236                       # What read queue length does an incoming req see
system.mem_ctrls3.rdQLenPdf::11                  4936                       # What read queue length does an incoming req see
system.mem_ctrls3.rdQLenPdf::12                  4790                       # What read queue length does an incoming req see
system.mem_ctrls3.rdQLenPdf::13                  4422                       # What read queue length does an incoming req see
system.mem_ctrls3.rdQLenPdf::14                  4348                       # What read queue length does an incoming req see
system.mem_ctrls3.rdQLenPdf::15                  4237                       # What read queue length does an incoming req see
system.mem_ctrls3.rdQLenPdf::16                  4010                       # What read queue length does an incoming req see
system.mem_ctrls3.rdQLenPdf::17                  3911                       # What read queue length does an incoming req see
system.mem_ctrls3.rdQLenPdf::18                  3758                       # What read queue length does an incoming req see
system.mem_ctrls3.rdQLenPdf::19                  3731                       # What read queue length does an incoming req see
system.mem_ctrls3.rdQLenPdf::20                  3625                       # What read queue length does an incoming req see
system.mem_ctrls3.rdQLenPdf::21                  3492                       # What read queue length does an incoming req see
system.mem_ctrls3.rdQLenPdf::22                  3388                       # What read queue length does an incoming req see
system.mem_ctrls3.rdQLenPdf::23                  3323                       # What read queue length does an incoming req see
system.mem_ctrls3.rdQLenPdf::24                  3197                       # What read queue length does an incoming req see
[...]
system.ruby.L2Cache_Controller.S_I.Ack_all::total           14                      
system.ruby.L2Cache_Controller.ISS.L1_GETS |           1    100.00%    100.00% |           0      0.00%    100.00% |           0      0.00%    100.00% |           0      0.00%    100.00% |           0      0.00%    100.00% |           0      0.00%    100.00% |           0      0.00%    100.00% |           0      0.00%    100.00% |           0      0.00%    100.00% |           0      0.00%    100.00% |           0      0.00%    100.00% |           0      0.00%    100.00% |           0      0.00%    100.00% |           0      0.00%    100.00% |           0      0.00%    100.00% |           0      0.00%    100.00% |           0      0.00%    100.00% |           0      0.00%    100.00% |           0      0.00%    100.00% |           0      0.00%    100.00% |           0      0.00%    100.00% |           0      0.00%    100.00% |           0      0.00%    100.00% |           0      0.00%    100.00% |           0      0.00%    100.00% |           0      0.00%    100.00% |           0      0.00%    100.00% |           0      0.00%    100.00% |           0      0.00%    100.00% |           0      0.00%    100.00% |           0      0.00%    100.00% |           0      0.00%    100.00%
system.ruby.L2Cache_Controller.ISS.L1_GETS::total            1                      
system.ruby.L2Cache_Controller.ISS.Mem_Data |       18692      7.93%      7.93% |        7080      3.00%     10.93% |        7087      3.01%     13.94% |        7035      2.98%     16.92% |        7001      2.97%     19.89% |        6986      2.96%     22.85% |        6997      2.97%     25.82% |        6993      2.97%     28.79% |        7032      2.98%     31.77% |        7034      2.98%     34.76% |        7066      3.00%     37.75% |        6990      2.96%     40.72% |        6994      2.97%     43.68% |        6993      2.97%     46.65% |        6995      2.97%     49.62% |        6960      2.95%     52.57% |        6998      2.97%     55.54% |        6975      2.96%     58.50% |        7006      2.97%     61.47% |        6984      2.96%     64.43% |        6982      2.96%     67.39% |        6967      2.96%     70.35% |        6993      2.97%     73.31% |        6986      2.96%     76.28% |        7003      2.97%     79.25% |        7006      2.97%     82.22% |        6984      2.96%     85.18% |        6965      2.95%     88.14% |        7005      2.97%     91.11% |        6985      2.96%     94.07% |        6959      2.95%     97.02% |        7023      2.98%    100.00%
system.ruby.L2Cache_Controller.ISS.Mem_Data::total       235756                      
system.ruby.L2Cache_Controller.IS.Mem_Data |         543      3.25%      3.25% |         472      2.83%      6.08% |         466      2.79%      8.87% |         466      2.79%     11.65% |         512      3.06%     14.72% |         468      2.80%     17.52% |         506      3.03%     20.55% |         531      3.18%     23.73% |         549      3.29%     27.01% |         490      2.93%     29.95% |         536      3.21%     33.16% |         568      3.40%     36.56% |         623      3.73%     40.28% |         567      3.39%     43.68% |         583      3.49%     47.17% |         526      3.15%     50.32% |         536      3.21%     53.53% |         574      3.44%     56.96% |         566      3.39%     60.35% |         512      3.06%     63.41% |         508      3.04%     66.46% |         524      3.14%     69.59% |         484      2.90%     72.49% |         471      2.82%     75.31% |         547      3.27%     78.58% |         595      3.56%     82.14% |         535      3.20%     85.35% |         482      2.89%     88.23% |         493      2.95%     91.18% |         512      3.06%     94.25% |         492      2.95%     97.19% |         469      2.81%    100.00%
system.ruby.L2Cache_Controller.IS.Mem_Data::total        16706                      
system.ruby.L2Cache_Controller.IM.L1_GETX |           1    100.00%    100.00% |           0      0.00%    100.00% |           0      0.00%    100.00% |           0      0.00%    100.00% |           0      0.00%    100.00% |           0      0.00%    100.00% |           0      0.00%    100.00% |           0      0.00%    100.00% |           0      0.00%    100.00% |           0      0.00%    100.00% |           0      0.00%    100.00% |           0      0.00%    100.00% |           0      0.00%    100.00% |           0      0.00%    100.00% |           0      0.00%    100.00% |           0      0.00%    100.00% |           0      0.00%    100.00% |           0      0.00%    100.00% |           0      0.00%    100.00% |           0      0.00%    100.00% |           0      0.00%    100.00% |           0      0.00%    100.00% |           0      0.00%    100.00% |           0      0.00%    100.00% |           0      0.00%    100.00% |           0      0.00%    100.00% |           0      0.00%    100.00% |           0      0.00%    100.00% |           0      0.00%    100.00% |           0      0.00%    100.00% |           0      0.00%    100.00% |           0      0.00%    100.00%
system.ruby.L2Cache_Controller.IM.L1_GETX::total            1                      
system.ruby.L2Cache_Controller.IM.Mem_Data |       40412      3.13%      3.13% |       40330      3.12%      6.25% |       40342      3.12%      9.38% |       40347      3.13%     12.50% |       40353      3.13%     15.63% |       40363      3.13%     18.76% |       40339      3.12%     21.88% |       40336      3.12%     25.00% |       40350      3.13%     28.13% |       40344      3.12%     31.25% |       40329      3.12%     34.38% |       40358      3.13%     37.50% |       40339      3.12%     40.63% |       40338      3.12%     43.75% |       40341      3.12%     46.88% |       40330      3.12%     50.00% |       40352      3.13%     53.13% |       40352      3.13%     56.25% |       40349      3.13%     59.38% |       40345      3.12%     62.50% |       40340      3.12%     65.63% |       40354      3.13%     68.75% |       40339      3.12%     71.88% |       40341      3.12%     75.00% |       40347      3.13%     78.13% |       40345      3.12%     81.25% |       40349      3.13%     84.38% |       40337      3.12%     87.50% |       40336      3.12%     90.63% |       40338      3.12%     93.75% |       40351      3.13%     96.88% |       40332      3.12%    100.00%
system.ruby.L2Cache_Controller.IM.Mem_Data::total      1291058                      
system.ruby.L2Cache_Controller.SS_MB.Exclusive_Unblock |           4      8.89%      8.89% |           6     13.33%     22.22% |           2      4.44%     26.67% |           6     13.33%     40.00% |           1      2.22%     42.22% |           0      0.00%     42.22% |           1      2.22%     44.44% |           0      0.00%     44.44% |           0      0.00%     44.44% |           1      2.22%     46.67% |           1      2.22%     48.89% |           0      0.00%     48.89% |           4      8.89%     57.78% |           0      0.00%     57.78% |           3      6.67%     64.44% |           0      0.00%     64.44% |           0      0.00%     64.44% |           0      0.00%     64.44% |           9     20.00%     84.44% |           0      0.00%     84.44% |           0      0.00%     84.44% |           0      0.00%     84.44% |           0      0.00%     84.44% |           0      0.00%     84.44% |           1      2.22%     86.67% |           2      4.44%     91.11% |           1      2.22%     93.33% |           1      2.22%     95.56% |           0      0.00%     95.56% |           1      2.22%     97.78% |           1      2.22%    100.00% |           0      0.00%    100.00%
system.ruby.L2Cache_Controller.SS_MB.Exclusive_Unblock::total           45                      
system.ruby.L2Cache_Controller.MT_MB.L1_PUTX |           2    100.00%    100.00% |           0      0.00%    100.00% |           0      0.00%    100.00% |           0      0.00%    100.00% |           0      0.00%    100.00% |           0      0.00%    100.00% |           0      0.00%    100.00% |           0      0.00%    100.00% |           0      0.00%    100.00% |           0      0.00%    100.00% |           0      0.00%    100.00% |           0      0.00%    100.00% |           0      0.00%    100.00% |           0      0.00%    100.00% |           0      0.00%    100.00% |           0      0.00%    100.00% |           0      0.00%    100.00% |           0      0.00%    100.00% |           0      0.00%    100.00% |           0      0.00%    100.00% |           0      0.00%    100.00% |           0      0.00%    100.00% |           0      0.00%    100.00% |           0      0.00%    100.00% |           0      0.00%    100.00% |           0      0.00%    100.00% |           0      0.00%    100.00% |           0      0.00%    100.00% |           0      0.00%    100.00% |           0      0.00%    100.00% |           0      0.00%    100.00% |           0      0.00%    100.00%
system.ruby.L2Cache_Controller.MT_MB.L1_PUTX::total            2                      
system.ruby.L2Cache_Controller.MT_MB.Exclusive_Unblock |      173143      8.48%      8.48% |       64263      3.15%     11.63% |       58764      2.88%     14.51% |       58465      2.86%     17.37% |       57801      2.83%     20.20% |       56504      2.77%     22.97% |       55007      2.69%     25.67% |       55303      2.71%     28.37% |       59199      2.90%     31.27% |       57721      2.83%     34.10% |       60647      2.97%     37.07% |       60211      2.95%     40.02% |       56860      2.79%     42.81% |       56794      2.78%     45.59% |       56448      2.77%     48.35% |       56869      2.79%     51.14% |       59141      2.90%     54.04% |       58517      2.87%     56.90% |       59887      2.93%     59.84% |       60878      2.98%     62.82% |       60909      2.98%     65.80% |       63096      3.09%     68.89% |       64327      3.15%     72.05% |       60551      2.97%     75.01% |       61149      3.00%     78.01% |       62472      3.06%     81.07% |       60797      2.98%     84.05% |       61423      3.01%     87.05% |       64099      3.14%     90.19% |       61917      3.03%     93.23% |       70030      3.43%     96.66% |       68237      3.34%    100.00%
system.ruby.L2Cache_Controller.MT_MB.Exclusive_Unblock::total      2041429                      
system.ruby.L2Cache_Controller.MT_IIB.WB_Data |           0      0.00%      0.00% |           0      0.00%      0.00% |           0      0.00%      0.00% |           0      0.00%      0.00% |           0      0.00%      0.00% |           1     50.00%     50.00% |           0      0.00%     50.00% |           0      0.00%     50.00% |           0      0.00%     50.00% |           0      0.00%     50.00% |           0      0.00%     50.00% |           0      0.00%     50.00% |           0      0.00%     50.00% |           0      0.00%     50.00% |           0      0.00%     50.00% |           0      0.00%     50.00% |           0      0.00%     50.00% |           0      0.00%     50.00% |           0      0.00%     50.00% |           0      0.00%     50.00% |           0      0.00%     50.00% |           0      0.00%     50.00% |           0      0.00%     50.00% |           0      0.00%     50.00% |           0      0.00%     50.00% |           0      0.00%     50.00% |           0      0.00%     50.00% |           0      0.00%     50.00% |           1     50.00%    100.00% |           0      0.00%    100.00% |           0      0.00%    100.00% |           0      0.00%    100.00%
system.ruby.L2Cache_Controller.MT_IIB.WB_Data::total            2                      
system.ruby.L2Cache_Controller.MT_IIB.WB_Data_clean |          19    100.00%    100.00% |           0      0.00%    100.00% |           0      0.00%    100.00% |           0      0.00%    100.00% |           0      0.00%    100.00% |           0      0.00%    100.00% |           0      0.00%    100.00% |           0      0.00%    100.00% |           0      0.00%    100.00% |           0      0.00%    100.00% |           0      0.00%    100.00% |           0      0.00%    100.00% |           0      0.00%    100.00% |           0      0.00%    100.00% |           0      0.00%    100.00% |           0      0.00%    100.00% |           0      0.00%    100.00% |           0      0.00%    100.00% |           0      0.00%    100.00% |           0      0.00%    100.00% |           0      0.00%    100.00% |           0      0.00%    100.00% |           0      0.00%    100.00% |           0      0.00%    100.00% |           0      0.00%    100.00% |           0      0.00%    100.00% |           0      0.00%    100.00% |           0      0.00%    100.00% |           0      0.00%    100.00% |           0      0.00%    100.00% |           0      0.00%    100.00% |           0      0.00%    100.00%
system.ruby.L2Cache_Controller.MT_IIB.WB_Data_clean::total           19                      
system.ruby.L2Cache_Controller.MT_SB.Unblock |          19     90.48%     90.48% |           0      0.00%     90.48% |           0      0.00%     90.48% |           0      0.00%     90.48% |           0      0.00%     90.48% |           1      4.76%     95.24% |           0      0.00%     95.24% |           0      0.00%     95.24% |           0      0.00%     95.24% |           0      0.00%     95.24% |           0      0.00%     95.24% |           0      0.00%     95.24% |           0      0.00%     95.24% |           0      0.00%     95.24% |           0      0.00%     95.24% |           0      0.00%     95.24% |           0      0.00%     95.24% |           0      0.00%     95.24% |           0      0.00%     95.24% |           0      0.00%     95.24% |           0      0.00%     95.24% |           0      0.00%     95.24% |           0      0.00%     95.24% |           0      0.00%     95.24% |           0      0.00%     95.24% |           0      0.00%     95.24% |           0      0.00%     95.24% |           0      0.00%     95.24% |           1      4.76%    100.00% |           0      0.00%    100.00% |           0      0.00%    100.00% |           0      0.00%    100.00%
system.ruby.L2Cache_Controller.MT_SB.Unblock::total           21                      
system.ruby.SimicsNetworkPortInterface_Controller.MessageSend |      530833     24.28%     24.28% |     1093080     50.00%     74.28% |       70228      3.21%     77.49% |       70847      3.24%     80.73% |       70266      3.21%     83.95% |       70557      3.23%     87.18% |       70109      3.21%     90.38% |       70947      3.25%     93.63% |       69680      3.19%     96.82% |       69613      3.18%    100.00% |           0      0.00%    100.00% |           0      0.00%    100.00% |           0      0.00%    100.00% |           0      0.00%    100.00% |           0      0.00%    100.00% |           0      0.00%    100.00% |           0      0.00%    100.00% |           0      0.00%    100.00% |           0      0.00%    100.00% |           0      0.00%    100.00% |           0      0.00%    100.00% |           0      0.00%    100.00% |           0      0.00%    100.00% |           0      0.00%    100.00% |           0      0.00%    100.00% |           0      0.00%    100.00% |           0      0.00%    100.00% |           0      0.00%    100.00% |           0      0.00%    100.00% |           0      0.00%    100.00% |           0      0.00%    100.00% |           0      0.00%    100.00%
system.ruby.SimicsNetworkPortInterface_Controller.MessageSend::total      2186160                      
system.ruby.SimicsNetworkPortInterface_Controller.MessageRecv |      530833     24.28%     24.28% |     1093080     50.00%     74.28% |       70228      3.21%     77.49% |       70847      3.24%     80.73% |       70266      3.21%     83.95% |       70557      3.23%     87.18% |       70109      3.21%     90.38% |       70947      3.25%     93.63% |       69680      3.19%     96.82% |       69613      3.18%    100.00% |           0      0.00%    100.00% |           0      0.00%    100.00% |           0      0.00%    100.00% |           0      0.00%    100.00% |           0      0.00%    100.00% |           0      0.00%    100.00% |           0      0.00%    100.00% |           0      0.00%    100.00% |           0      0.00%    100.00% |           0      0.00%    100.00% |           0      0.00%    100.00% |           0      0.00%    100.00% |           0      0.00%    100.00% |           0      0.00%    100.00% |           0      0.00%    100.00% |           0      0.00%    100.00% |           0      0.00%    100.00% |           0      0.00%    100.00% |           0      0.00%    100.00% |           0      0.00%    100.00% |           0      0.00%    100.00% |           0      0.00%    100.00%
system.ruby.SimicsNetworkPortInterface_Controller.MessageRecv::total      2186160                      
system.ruby.SimicsNetworkPortInterface_Controller.A.MessageSend |      530833     24.28%     24.28% |     1093080     50.00%     74.28% |       70228      3.21%     77.49% |       70847      3.24%     80.73% |       70266      3.21%     83.95% |       70557      3.23%     87.18% |       70109      3.21%     90.38% |       70947      3.25%     93.63% |       69680      3.19%     96.82% |       69613      3.18%    100.00% |           0      0.00%    100.00% |           0      0.00%    100.00% |           0      0.00%    100.00% |           0      0.00%    100.00% |           0      0.00%    100.00% |           0      0.00%    100.00% |           0      0.00%    100.00% |           0      0.00%    100.00% |           0      0.00%    100.00% |           0      0.00%    100.00% |           0      0.00%    100.00% |           0      0.00%    100.00% |           0      0.00%    100.00% |           0      0.00%    100.00% |           0      0.00%    100.00% |           0      0.00%    100.00% |           0      0.00%    100.00% |           0      0.00%    100.00% |           0      0.00%    100.00% |           0      0.00%    100.00% |           0      0.00%    100.00% |           0      0.00%    100.00%
system.ruby.SimicsNetworkPortInterface_Controller.A.MessageSend::total      2186160                      
system.ruby.SimicsNetworkPortInterface_Controller.A.MessageRecv |      530833     24.28%     24.28% |     1093080     50.00%     74.28% |       70228      3.21%     77.49% |       70847      3.24%     80.73% |       70266      3.21%     83.95% |       70557      3.23%     87.18% |       70109      3.21%     90.38% |       70947      3.25%     93.63% |       69680      3.19%     96.82% |       69613      3.18%    100.00% |           0      0.00%    100.00% |           0      0.00%    100.00% |           0      0.00%    100.00% |           0      0.00%    100.00% |           0      0.00%    100.00% |           0      0.00%    100.00% |           0      0.00%    100.00% |           0      0.00%    100.00% |           0      0.00%    100.00% |           0      0.00%    100.00% |           0      0.00%    100.00% |           0      0.00%    100.00% |           0      0.00%    100.00% |           0      0.00%    100.00% |           0      0.00%    100.00% |           0      0.00%    100.00% |           0      0.00%    100.00% |           0      0.00%    100.00% |           0      0.00%    100.00% |           0      0.00%    100.00% |           0      0.00%    100.00% |           0      0.00%    100.00%
system.ruby.SimicsNetworkPortInterface_Controller.A.MessageRecv::total      2186160                      
system.switch_cpus.kern.inst.arm                    0                       # number of arm instructions executed
system.switch_cpus.kern.inst.quiesce                0                       # number of quiesce instructions executed

---------- End Simulation Statistics   ----------
