
---------- Begin Simulation Statistics ----------
sim_seconds                                  0.091556                       # Number of seconds simulated
sim_ticks                                 91555772500                       # Number of ticks simulated
final_tick                               5267723851000                       # Number of ticks from beginning of simulation (restored from checkpoints and never reset)
sim_freq                                 1000000000000                       # Frequency of simulated ticks
host_inst_rate                                  22677                       # Simulator instruction rate (inst/s)
host_op_rate                                    40253                       # Simulator op (including micro ops) rate (op/s)
host_tick_rate                               51316556                       # Simulator tick rate (ticks/s)
host_mem_usage                                5543396                       # Number of bytes of host memory used
host_seconds                                  1784.14                       # Real time elapsed on the host
sim_insts                                    40459381                       # Number of instructions simulated
sim_ops                                      71817309                       # Number of ops (including micro ops) simulated
system.voltage_domain.voltage                       1                       # Voltage in Volts
system.clk_domain.clock                           500                       # Clock period in ticks
system.mem_ctrls0.bytes_read::ruby.dir_cntrl0     21125184                       # Number of bytes read from this memory
system.mem_ctrls0.bytes_read::total          21125184                       # Number of bytes read from this memory
system.mem_ctrls0.bytes_written::ruby.dir_cntrl0     11911040                       # Number of bytes written to this memory
system.mem_ctrls0.bytes_written::total       11911040                       # Number of bytes written to this memory
system.mem_ctrls0.num_reads::ruby.dir_cntrl0       330081                       # Number of read requests responded to by this memory
system.mem_ctrls0.num_reads::total             330081                       # Number of read requests responded to by this memory
system.mem_ctrls0.num_writes::ruby.dir_cntrl0       186110                       # Number of write requests responded to by this memory
system.mem_ctrls0.num_writes::total            186110                       # Number of write requests responded to by this memory
system.mem_ctrls0.bw_read::ruby.dir_cntrl0    230735686                       # Total read bandwidth from this memory (bytes/s)
system.mem_ctrls0.bw_read::total            230735686                       # Total read bandwidth from this memory (bytes/s)
system.mem_ctrls0.bw_write::ruby.dir_cntrl0    130096002                       # Write bandwidth from this memory (bytes/s)
system.mem_ctrls0.bw_write::total           130096002                       # Write bandwidth from this memory (bytes/s)
system.mem_ctrls0.bw_total::ruby.dir_cntrl0    360831689                       # Total bandwidth to/from this memory (bytes/s)
system.mem_ctrls0.bw_total::total           360831689                       # Total bandwidth to/from this memory (bytes/s)
system.mem_ctrls0.readReqs                     330081                       # Number of read requests accepted
system.mem_ctrls0.writeReqs                    186110                       # Number of write requests accepted
system.mem_ctrls0.readBursts                   330081                       # Number of DRAM read bursts, including those serviced by the write queue
system.mem_ctrls0.writeBursts                  186110                       # Number of DRAM write bursts, including those merged in the write queue
system.mem_ctrls0.bytesReadDRAM              21123008                       # Total number of bytes read from DRAM
system.mem_ctrls0.bytesReadWrQ                   2176                       # Total number of bytes read from write queue
system.mem_ctrls0.bytesWritten               11910912                       # Total number of bytes written to DRAM
system.mem_ctrls0.bytesReadSys               21125184                       # Total read bytes from the system interface side
system.mem_ctrls0.bytesWrittenSys            11911040                       # Total written bytes from the system interface side
system.mem_ctrls0.servicedByWrQ                    34                       # Number of DRAM read bursts serviced by the write queue
system.mem_ctrls0.mergedWrBursts                    0                       # Number of DRAM write bursts merged with an existing one
system.mem_ctrls0.neitherReadNorWriteReqs            0                       # Number of requests that are neither read nor write
system.mem_ctrls0.perBankRdBursts::0            20437                       # Per bank write bursts
system.mem_ctrls0.perBankRdBursts::1            20965                       # Per bank write bursts
system.mem_ctrls0.perBankRdBursts::2            20453                       # Per bank write bursts
system.mem_ctrls0.perBankRdBursts::3            20928                       # Per bank write bursts
system.mem_ctrls0.perBankRdBursts::4            20475                       # Per bank write bursts
system.mem_ctrls0.perBankRdBursts::5            20972                       # Per bank write bursts
system.mem_ctrls0.perBankRdBursts::6            20636                       # Per bank write bursts
system.mem_ctrls0.perBankRdBursts::7            20744                       # Per bank write bursts
system.mem_ctrls0.perBankRdBursts::8            20622                       # Per bank write bursts
system.mem_ctrls0.perBankRdBursts::9            20906                       # Per bank write bursts
system.mem_ctrls0.perBankRdBursts::10           20661                       # Per bank write bursts
system.mem_ctrls0.perBankRdBursts::11           20924                       # Per bank write bursts
system.mem_ctrls0.perBankRdBursts::12           20299                       # Per bank write bursts
system.mem_ctrls0.perBankRdBursts::13           20179                       # Per bank write bursts
system.mem_ctrls0.perBankRdBursts::14           20437                       # Per bank write bursts
system.mem_ctrls0.perBankRdBursts::15           20409                       # Per bank write bursts
system.mem_ctrls0.perBankWrBursts::0            11518                       # Per bank write bursts
system.mem_ctrls0.perBankWrBursts::1            11653                       # Per bank write bursts
system.mem_ctrls0.perBankWrBursts::2            11667                       # Per bank write bursts
system.mem_ctrls0.perBankWrBursts::3            11659                       # Per bank write bursts
system.mem_ctrls0.perBankWrBursts::4            11603                       # Per bank write bursts
system.mem_ctrls0.perBankWrBursts::5            11915                       # Per bank write bursts
system.mem_ctrls0.perBankWrBursts::6            11563                       # Per bank write bursts
system.mem_ctrls0.perBankWrBursts::7            11677                       # Per bank write bursts
system.mem_ctrls0.perBankWrBursts::8            11892                       # Per bank write bursts
system.mem_ctrls0.perBankWrBursts::9            11716                       # Per bank write bursts
system.mem_ctrls0.perBankWrBursts::10           11533                       # Per bank write bursts
system.mem_ctrls0.perBankWrBursts::11           11691                       # Per bank write bursts
system.mem_ctrls0.perBankWrBursts::12           11357                       # Per bank write bursts
system.mem_ctrls0.perBankWrBursts::13           11324                       # Per bank write bursts
system.mem_ctrls0.perBankWrBursts::14           11743                       # Per bank write bursts
system.mem_ctrls0.perBankWrBursts::15           11597                       # Per bank write bursts
system.mem_ctrls0.numRdRetry                    32563                       # Number of times read queue was full causing retry
system.mem_ctrls0.numWrRetry                     5526                       # Number of times write queue was full causing retry
system.mem_ctrls0.totGap                  91555213500                       # Total gap between requests
system.mem_ctrls0.readPktSize::0                    0                       # Read request sizes (log2)
system.mem_ctrls0.readPktSize::1                    0                       # Read request sizes (log2)
system.mem_ctrls0.readPktSize::2                    0                       # Read request sizes (log2)
system.mem_ctrls0.readPktSize::3                    0                       # Read request sizes (log2)
system.mem_ctrls0.readPktSize::4                    0                       # Read request sizes (log2)
system.mem_ctrls0.readPktSize::5                    0                       # Read request sizes (log2)
system.mem_ctrls0.readPktSize::6               330081                       # Read request sizes (log2)
system.mem_ctrls0.writePktSize::0                   0                       # Write request sizes (log2)
system.mem_ctrls0.writePktSize::1                   0                       # Write request sizes (log2)
system.mem_ctrls0.writePktSize::2                   0                       # Write request sizes (log2)
system.mem_ctrls0.writePktSize::3                   0                       # Write request sizes (log2)
system.mem_ctrls0.writePktSize::4                   0                       # Write request sizes (log2)
system.mem_ctrls0.writePktSize::5                   0                       # Write request sizes (log2)
system.mem_ctrls0.writePktSize::6              186110                       # Write request sizes (log2)
system.mem_ctrls0.rdQLenPdf::0                 133384                       # What read queue length does an incoming req see
system.mem_ctrls0.rdQLenPdf::1                  16595                       # What read queue length does an incoming req see
system.mem_ctrls0.rdQLenPdf::2                  14361                       # What read queue length does an incoming req see
system.mem_ctrls0.rdQLenPdf::3                  12683                       # What read queue length does an incoming req see
system.mem_ctrls0.rdQLenPdf::4                  11837                       # What read queue length does an incoming req see
system.mem_ctrls0.rdQLenPdf::5                  11081                       # What read queue length does an incoming req see
system.mem_ctrls0.rdQLenPdf::6                   9978                       # What read queue length does an incoming req see
system.mem_ctrls0.rdQLenPdf::7                   9157                       # What read queue length does an incoming req see
system.mem_ctrls0.rdQLenPdf::8                   7694                       # What read queue length does an incoming req see
system.mem_ctrls0.rdQLenPdf::9                   6982                       # What read queue length does an incoming req see
system.mem_ctrls0.rdQLenPdf::10                  6365                       # What read queue length does an incoming req see
system.mem_ctrls0.rdQLenPdf::11                  5716                       # What read queue length does an incoming req see
system.mem_ctrls0.rdQLenPdf::12                  5221                       # What read queue length does an incoming req see
system.mem_ctrls0.rdQLenPdf::13                  4645                       # What read queue length does an incoming req see
system.mem_ctrls0.rdQLenPdf::14                  4044                       # What read queue length does an incoming req see
system.mem_ctrls0.rdQLenPdf::15                  3720                       # What read queue length does an incoming req see
system.mem_ctrls0.rdQLenPdf::16                  3437                       # What read queue length does an incoming req see
system.mem_ctrls0.rdQLenPdf::17                  3053                       # What read queue length does an incoming req see
system.mem_ctrls0.rdQLenPdf::18                  2834                       # What read queue length does an incoming req see
system.mem_ctrls0.rdQLenPdf::19                  2615                       # What read queue length does an incoming req see
system.mem_ctrls0.rdQLenPdf::20                  2383                       # What read queue length does an incoming req see
system.mem_ctrls0.rdQLenPdf::21                  2272                       # What read queue length does an incoming req see
system.mem_ctrls0.rdQLenPdf::22                  2067                       # What read queue length does an incoming req see
system.mem_ctrls0.rdQLenPdf::23                  1883                       # What read queue length does an incoming req see
system.mem_ctrls0.rdQLenPdf::24                  1810                       # What read queue length does an incoming req see
system.mem_ctrls0.rdQLenPdf::25                  1756                       # What read queue length does an incoming req see
system.mem_ctrls0.rdQLenPdf::26                  1664                       # What read queue length does an incoming req see
system.mem_ctrls0.rdQLenPdf::27                  1639                       # What read queue length does an incoming req see
system.mem_ctrls0.rdQLenPdf::28                  1554                       # What read queue length does an incoming req see
system.mem_ctrls0.rdQLenPdf::29                  1563                       # What read queue length does an incoming req see
system.mem_ctrls0.rdQLenPdf::30                  1610                       # What read queue length does an incoming req see
system.mem_ctrls0.rdQLenPdf::31                 34444                       # What read queue length does an incoming req see
system.mem_ctrls0.wrQLenPdf::0                  30579                       # What write queue length does an incoming req see
system.mem_ctrls0.wrQLenPdf::1                  32477                       # What write queue length does an incoming req see
system.mem_ctrls0.wrQLenPdf::2                  33304                       # What write queue length does an incoming req see
system.mem_ctrls0.wrQLenPdf::3                  33539                       # What write queue length does an incoming req see
system.mem_ctrls0.wrQLenPdf::4                  33746                       # What write queue length does an incoming req see
system.mem_ctrls0.wrQLenPdf::5                   6670                       # What write queue length does an incoming req see
system.mem_ctrls0.wrQLenPdf::6                   6104                       # What write queue length does an incoming req see
system.mem_ctrls0.wrQLenPdf::7                   9691                       # What write queue length does an incoming req see
system.mem_ctrls0.bytesPerActivate::samples       139479                       # Bytes accessed per row activation
system.mem_ctrls0.bytesPerActivate::mean   236.831523                       # Bytes accessed per row activation
system.mem_ctrls0.bytesPerActivate::gmean   176.411204                       # Bytes accessed per row activation
system.mem_ctrls0.bytesPerActivate::stdev   192.445571                       # Bytes accessed per row activation
system.mem_ctrls0.bytesPerActivate::0-127        39083     28.02%     28.02% # Bytes accessed per row activation
system.mem_ctrls0.bytesPerActivate::128-255        39019     27.97%     56.00% # Bytes accessed per row activation
system.mem_ctrls0.bytesPerActivate::256-383        40101     28.75%     84.75% # Bytes accessed per row activation
system.mem_ctrls0.bytesPerActivate::384-511         7099      5.09%     89.84% # Bytes accessed per row activation
system.mem_ctrls0.bytesPerActivate::512-639         7586      5.44%     95.27% # Bytes accessed per row activation
system.mem_ctrls0.bytesPerActivate::640-767         1974      1.42%     96.69% # Bytes accessed per row activation
system.mem_ctrls0.bytesPerActivate::768-895         1266      0.91%     97.60% # Bytes accessed per row activation
system.mem_ctrls0.bytesPerActivate::896-1023         1069      0.77%     98.36% # Bytes accessed per row activation
system.mem_ctrls0.bytesPerActivate::1024-1151         2282      1.64%    100.00% # Bytes accessed per row activation
system.mem_ctrls0.bytesPerActivate::total       139479                       # Bytes accessed per row activation
system.mem_ctrls0.rdPerTurnAround::samples        31112                       # Reads before turning the bus around for writes
system.mem_ctrls0.rdPerTurnAround::mean     10.608158                       # Reads before turning the bus around for writes
system.mem_ctrls0.rdPerTurnAround::stdev    25.461795                       # Reads before turning the bus around for writes
system.mem_ctrls0.rdPerTurnAround::0-127        31104     99.97%     99.97% # Reads before turning the bus around for writes
system.mem_ctrls0.rdPerTurnAround::128-255            7      0.02%    100.00% # Reads before turning the bus around for writes
system.mem_ctrls0.rdPerTurnAround::3968-4095            1      0.00%    100.00% # Reads before turning the bus around for writes
system.mem_ctrls0.rdPerTurnAround::total        31112                       # Reads before turning the bus around for writes
system.mem_ctrls0.wrPerTurnAround::samples        31112                       # Writes before turning the bus around for reads
system.mem_ctrls0.wrPerTurnAround::mean      5.981872                       # Writes before turning the bus around for reads
system.mem_ctrls0.wrPerTurnAround::gmean     5.685003                       # Writes before turning the bus around for reads
system.mem_ctrls0.wrPerTurnAround::stdev     2.400097                       # Writes before turning the bus around for reads
system.mem_ctrls0.wrPerTurnAround::4-7          26913     86.50%     86.50% # Writes before turning the bus around for reads
system.mem_ctrls0.wrPerTurnAround::8-11          2488      8.00%     94.50% # Writes before turning the bus around for reads
system.mem_ctrls0.wrPerTurnAround::12-15          996      3.20%     97.70% # Writes before turning the bus around for reads
system.mem_ctrls0.wrPerTurnAround::16-19          715      2.30%    100.00% # Writes before turning the bus around for reads
system.mem_ctrls0.wrPerTurnAround::total        31112                       # Writes before turning the bus around for reads
system.mem_ctrls0.totQLat                 27175811164                       # Total ticks spent queuing
system.mem_ctrls0.totMemAccLat            33364192414                       # Total ticks spent from burst creation until serviced by the DRAM
system.mem_ctrls0.totBusLat                1650235000                       # Total ticks spent in databus transfers
system.mem_ctrls0.avgQLat                    82339.22                       # Average queueing delay per DRAM burst
system.mem_ctrls0.avgBusLat                   5000.00                       # Average bus latency per DRAM burst
system.mem_ctrls0.avgMemAccLat              101089.22                       # Average memory access latency per DRAM burst
system.mem_ctrls0.avgRdBW                      230.71                       # Average DRAM read bandwidth in MiByte/s
system.mem_ctrls0.avgWrBW                      130.09                       # Average achieved write bandwidth in MiByte/s
system.mem_ctrls0.avgRdBWSys                   230.74                       # Average system read bandwidth in MiByte/s
system.mem_ctrls0.avgWrBWSys                   130.10                       # Average system write bandwidth in MiByte/s
system.mem_ctrls0.peakBW                     12800.00                       # Theoretical peak bandwidth in MiByte/s
system.mem_ctrls0.busUtil                        2.82                       # Data bus utilization in percentage
system.mem_ctrls0.busUtilRead                    1.80                       # Data bus utilization in percentage for reads
system.mem_ctrls0.busUtilWrite                   1.02                       # Data bus utilization in percentage for writes
system.mem_ctrls0.avgRdQLen                      1.41                       # Average read queue length when enqueuing
system.mem_ctrls0.avgWrQLen                      2.98                       # Average write queue length when enqueuing
system.mem_ctrls0.readRowHits                  258523                       # Number of row buffer hits during reads
system.mem_ctrls0.writeRowHits                 118142                       # Number of row buffer hits during writes
system.mem_ctrls0.readRowHitRate                78.33                       # Row buffer hit rate for reads
system.mem_ctrls0.writeRowHitRate               63.48                       # Row buffer hit rate for writes
system.mem_ctrls0.avgGap                    177366.93                       # Average gap between requests
system.mem_ctrls0.pageHitRate                   72.97                       # Row buffer hit rate, read and write combined
system.mem_ctrls0.memoryStateTime::IDLE   15194813000                       # Time in different power states
system.mem_ctrls0.memoryStateTime::REF     3057080000                       # Time in different power states
system.mem_ctrls0.memoryStateTime::PRE_PDN            0                       # Time in different power states
system.mem_ctrls0.memoryStateTime::ACT    73300714000                       # Time in different power states
system.mem_ctrls0.memoryStateTime::ACT_PDN            0                       # Time in different power states
system.mem_ctrls0.actEnergy::0              531294120                       # Energy for activate commands per rank (pJ)
system.mem_ctrls0.actEnergy::1              523099080                       # Energy for activate commands per rank (pJ)
system.mem_ctrls0.preEnergy::0              289892625                       # Energy for precharge commands per rank (pJ)
system.mem_ctrls0.preEnergy::1              285421125                       # Energy for precharge commands per rank (pJ)
system.mem_ctrls0.readEnergy::0            1291664400                       # Energy for read commands per rank (pJ)
system.mem_ctrls0.readEnergy::1            1282546200                       # Energy for read commands per rank (pJ)
system.mem_ctrls0.writeEnergy::0            604272960                       # Energy for write commands per rank (pJ)
system.mem_ctrls0.writeEnergy::1            601674480                       # Energy for write commands per rank (pJ)
system.mem_ctrls0.refreshEnergy::0         5979648480                       # Energy for refresh commands per rank (pJ)
system.mem_ctrls0.refreshEnergy::1         5979648480                       # Energy for refresh commands per rank (pJ)
system.mem_ctrls0.actBackEnergy::0        37673827380                       # Energy for active background per rank (pJ)
system.mem_ctrls0.actBackEnergy::1        36963724230                       # Energy for active background per rank (pJ)
system.mem_ctrls0.preBackEnergy::0        21883375500                       # Energy for precharge background per rank (pJ)
system.mem_ctrls0.preBackEnergy::1        22506273000                       # Energy for precharge background per rank (pJ)
system.mem_ctrls0.totalEnergy::0          68253975465                       # Total energy per rank (pJ)
system.mem_ctrls0.totalEnergy::1          68142386595                       # Total energy per rank (pJ)
system.mem_ctrls0.averagePower::0          745.529648                       # Core power per rank (mW)
system.mem_ctrls0.averagePower::1          744.310776                       # Core power per rank (mW)
system.mem_ctrls1.bytes_read::ruby.dir_cntrl1     20698304                       # Number of bytes read from this memory
system.mem_ctrls1.bytes_read::total          20698304                       # Number of bytes read from this memory
system.mem_ctrls1.bytes_written::ruby.dir_cntrl1     11492800                       # Number of bytes written to this memory
system.mem_ctrls1.bytes_written::total       11492800                       # Number of bytes written to this memory
system.mem_ctrls1.num_reads::ruby.dir_cntrl1       323411                       # Number of read requests responded to by this memory
system.mem_ctrls1.num_reads::total             323411                       # Number of read requests responded to by this memory
system.mem_ctrls1.num_writes::ruby.dir_cntrl1       179575                       # Number of write requests responded to by this memory
system.mem_ctrls1.num_writes::total            179575                       # Number of write requests responded to by this memory
system.mem_ctrls1.bw_read::ruby.dir_cntrl1    226073173                       # Total read bandwidth from this memory (bytes/s)
system.mem_ctrls1.bw_read::total            226073173                       # Total read bandwidth from this memory (bytes/s)
system.mem_ctrls1.bw_write::ruby.dir_cntrl1    125527858                       # Write bandwidth from this memory (bytes/s)
system.mem_ctrls1.bw_write::total           125527858                       # Write bandwidth from this memory (bytes/s)
system.mem_ctrls1.bw_total::ruby.dir_cntrl1    351601031                       # Total bandwidth to/from this memory (bytes/s)
system.mem_ctrls1.bw_total::total           351601031                       # Total bandwidth to/from this memory (bytes/s)
system.mem_ctrls1.readReqs                     323411                       # Number of read requests accepted
system.mem_ctrls1.writeReqs                    179575                       # Number of write requests accepted
system.mem_ctrls1.readBursts                   323411                       # Number of DRAM read bursts, including those serviced by the write queue
system.mem_ctrls1.writeBursts                  179575                       # Number of DRAM write bursts, including those merged in the write queue
system.mem_ctrls1.bytesReadDRAM              20696384                       # Total number of bytes read from DRAM
system.mem_ctrls1.bytesReadWrQ                   1920                       # Total number of bytes read from write queue
system.mem_ctrls1.bytesWritten               11492800                       # Total number of bytes written to DRAM
system.mem_ctrls1.bytesReadSys               20698304                       # Total read bytes from the system interface side
system.mem_ctrls1.bytesWrittenSys            11492800                       # Total written bytes from the system interface side
system.mem_ctrls1.servicedByWrQ                    30                       # Number of DRAM read bursts serviced by the write queue
system.mem_ctrls1.mergedWrBursts                    0                       # Number of DRAM write bursts merged with an existing one
system.mem_ctrls1.neitherReadNorWriteReqs            0                       # Number of requests that are neither read nor write
system.mem_ctrls1.perBankRdBursts::0            19997                       # Per bank write bursts
system.mem_ctrls1.perBankRdBursts::1            20561                       # Per bank write bursts
system.mem_ctrls1.perBankRdBursts::2            20027                       # Per bank write bursts
system.mem_ctrls1.perBankRdBursts::3            20465                       # Per bank write bursts
system.mem_ctrls1.perBankRdBursts::4            20117                       # Per bank write bursts
system.mem_ctrls1.perBankRdBursts::5            20542                       # Per bank write bursts
system.mem_ctrls1.perBankRdBursts::6            20269                       # Per bank write bursts
system.mem_ctrls1.perBankRdBursts::7            20431                       # Per bank write bursts
system.mem_ctrls1.perBankRdBursts::8            20222                       # Per bank write bursts
system.mem_ctrls1.perBankRdBursts::9            20460                       # Per bank write bursts
system.mem_ctrls1.perBankRdBursts::10           20205                       # Per bank write bursts
system.mem_ctrls1.perBankRdBursts::11           20529                       # Per bank write bursts
system.mem_ctrls1.perBankRdBursts::12           19848                       # Per bank write bursts
system.mem_ctrls1.perBankRdBursts::13           19757                       # Per bank write bursts
system.mem_ctrls1.perBankRdBursts::14           19962                       # Per bank write bursts
system.mem_ctrls1.perBankRdBursts::15           19989                       # Per bank write bursts
system.mem_ctrls1.perBankWrBursts::0            11126                       # Per bank write bursts
system.mem_ctrls1.perBankWrBursts::1            11254                       # Per bank write bursts
system.mem_ctrls1.perBankWrBursts::2            11260                       # Per bank write bursts
system.mem_ctrls1.perBankWrBursts::3            11254                       # Per bank write bursts
system.mem_ctrls1.perBankWrBursts::4            11213                       # Per bank write bursts
system.mem_ctrls1.perBankWrBursts::5            11513                       # Per bank write bursts
system.mem_ctrls1.perBankWrBursts::6            11154                       # Per bank write bursts
system.mem_ctrls1.perBankWrBursts::7            11264                       # Per bank write bursts
system.mem_ctrls1.perBankWrBursts::8            11473                       # Per bank write bursts
system.mem_ctrls1.perBankWrBursts::9            11287                       # Per bank write bursts
system.mem_ctrls1.perBankWrBursts::10           11130                       # Per bank write bursts
system.mem_ctrls1.perBankWrBursts::11           11280                       # Per bank write bursts
system.mem_ctrls1.perBankWrBursts::12           10954                       # Per bank write bursts
system.mem_ctrls1.perBankWrBursts::13           10913                       # Per bank write bursts
system.mem_ctrls1.perBankWrBursts::14           11296                       # Per bank write bursts
system.mem_ctrls1.perBankWrBursts::15           11204                       # Per bank write bursts
system.mem_ctrls1.numRdRetry                    30773                       # Number of times read queue was full causing retry
system.mem_ctrls1.numWrRetry                     5071                       # Number of times write queue was full causing retry
system.mem_ctrls1.totGap                  91554942500                       # Total gap between requests
system.mem_ctrls1.readPktSize::0                    0                       # Read request sizes (log2)
system.mem_ctrls1.readPktSize::1                    0                       # Read request sizes (log2)
system.mem_ctrls1.readPktSize::2                    0                       # Read request sizes (log2)
system.mem_ctrls1.readPktSize::3                    0                       # Read request sizes (log2)
system.mem_ctrls1.readPktSize::4                    0                       # Read request sizes (log2)
system.mem_ctrls1.readPktSize::5                    0                       # Read request sizes (log2)
system.mem_ctrls1.readPktSize::6               323411                       # Read request sizes (log2)
system.mem_ctrls1.writePktSize::0                   0                       # Write request sizes (log2)
system.mem_ctrls1.writePktSize::1                   0                       # Write request sizes (log2)
system.mem_ctrls1.writePktSize::2                   0                       # Write request sizes (log2)
system.mem_ctrls1.writePktSize::3                   0                       # Write request sizes (log2)
system.mem_ctrls1.writePktSize::4                   0                       # Write request sizes (log2)
system.mem_ctrls1.writePktSize::5                   0                       # Write request sizes (log2)
system.mem_ctrls1.writePktSize::6              179575                       # Write request sizes (log2)
system.mem_ctrls1.rdQLenPdf::0                 130319                       # What read queue length does an incoming req see
system.mem_ctrls1.rdQLenPdf::1                  14092                       # What read queue length does an incoming req see
system.mem_ctrls1.rdQLenPdf::2                  13878                       # What read queue length does an incoming req see
system.mem_ctrls1.rdQLenPdf::3                  13033                       # What read queue length does an incoming req see
system.mem_ctrls1.rdQLenPdf::4                  12064                       # What read queue length does an incoming req see
system.mem_ctrls1.rdQLenPdf::5                  11185                       # What read queue length does an incoming req see
system.mem_ctrls1.rdQLenPdf::6                  10081                       # What read queue length does an incoming req see
system.mem_ctrls1.rdQLenPdf::7                   9080                       # What read queue length does an incoming req see
system.mem_ctrls1.rdQLenPdf::8                   7653                       # What read queue length does an incoming req see
system.mem_ctrls1.rdQLenPdf::9                   6866                       # What read queue length does an incoming req see
system.mem_ctrls1.rdQLenPdf::10                  6279                       # What read queue length does an incoming req see
system.mem_ctrls1.rdQLenPdf::11                  5654                       # What read queue length does an incoming req see
system.mem_ctrls1.rdQLenPdf::12                  5243                       # What read queue length does an incoming req see
system.mem_ctrls1.rdQLenPdf::13                  4695                       # What read queue length does an incoming req see
system.mem_ctrls1.rdQLenPdf::14                  4320                       # What read queue length does an incoming req see
system.mem_ctrls1.rdQLenPdf::15                  3872                       # What read queue length does an incoming req see
system.mem_ctrls1.rdQLenPdf::16                  3502                       # What read queue length does an incoming req see
system.mem_ctrls1.rdQLenPdf::17                  3168                       # What read queue length does an incoming req see
system.mem_ctrls1.rdQLenPdf::18                  2895                       # What read queue length does an incoming req see
system.mem_ctrls1.rdQLenPdf::19                  2692                       # What read queue length does an incoming req see
system.mem_ctrls1.rdQLenPdf::20                  2538                       # What read queue length does an incoming req see
system.mem_ctrls1.rdQLenPdf::21                  2361                       # What read queue length does an incoming req see
system.mem_ctrls1.rdQLenPdf::22                  2194                       # What read queue length does an incoming req see
system.mem_ctrls1.rdQLenPdf::23                  1948                       # What read queue length does an incoming req see
system.mem_ctrls1.rdQLenPdf::24                  1819                       # What read queue length does an incoming req see
system.mem_ctrls1.rdQLenPdf::25                  1747                       # What read queue length does an incoming req see
system.mem_ctrls1.rdQLenPdf::26                  1686                       # What read queue length does an incoming req see
system.mem_ctrls1.rdQLenPdf::27                  1567                       # What read queue length does an incoming req see
system.mem_ctrls1.rdQLenPdf::28                  1514                       # What read queue length does an incoming req see
system.mem_ctrls1.rdQLenPdf::29                  1465                       # What read queue length does an incoming req see
system.mem_ctrls1.rdQLenPdf::30                  1485                       # What read queue length does an incoming req see
system.mem_ctrls1.rdQLenPdf::31                 32486                       # What read queue length does an incoming req see
system.mem_ctrls1.wrQLenPdf::0                  29489                       # What write queue length does an incoming req see
system.mem_ctrls1.wrQLenPdf::1                  31256                       # What write queue length does an incoming req see
system.mem_ctrls1.wrQLenPdf::2                  31953                       # What write queue length does an incoming req see
system.mem_ctrls1.wrQLenPdf::3                  32379                       # What write queue length does an incoming req see
system.mem_ctrls1.wrQLenPdf::4                  32682                       # What write queue length does an incoming req see
system.mem_ctrls1.wrQLenPdf::5                   6607                       # What write queue length does an incoming req see
system.mem_ctrls1.wrQLenPdf::6                   6000                       # What write queue length does an incoming req see
system.mem_ctrls1.wrQLenPdf::7                   9209                       # What write queue length does an incoming req see
system.mem_ctrls1.bytesPerActivate::samples       130588                       # Bytes accessed per row activation
system.mem_ctrls1.bytesPerActivate::mean   246.488314                       # Bytes accessed per row activation
system.mem_ctrls1.bytesPerActivate::gmean   183.845185                       # Bytes accessed per row activation
system.mem_ctrls1.bytesPerActivate::stdev   196.746112                       # Bytes accessed per row activation
system.mem_ctrls1.bytesPerActivate::0-127        34645     26.53%     26.53% # Bytes accessed per row activation
system.mem_ctrls1.bytesPerActivate::128-255        34427     26.36%     52.89% # Bytes accessed per row activation
system.mem_ctrls1.bytesPerActivate::256-383        40012     30.64%     83.53% # Bytes accessed per row activation
system.mem_ctrls1.bytesPerActivate::384-511         7086      5.43%     88.96% # Bytes accessed per row activation
system.mem_ctrls1.bytesPerActivate::512-639         7642      5.85%     94.81% # Bytes accessed per row activation
system.mem_ctrls1.bytesPerActivate::640-767         2031      1.56%     96.37% # Bytes accessed per row activation
system.mem_ctrls1.bytesPerActivate::768-895         1368      1.05%     97.41% # Bytes accessed per row activation
system.mem_ctrls1.bytesPerActivate::896-1023         1085      0.83%     98.24% # Bytes accessed per row activation
system.mem_ctrls1.bytesPerActivate::1024-1151         2292      1.76%    100.00% # Bytes accessed per row activation
system.mem_ctrls1.bytesPerActivate::total       130588                       # Bytes accessed per row activation
system.mem_ctrls1.rdPerTurnAround::samples        29981                       # Reads before turning the bus around for writes
system.mem_ctrls1.rdPerTurnAround::mean     10.786198                       # Reads before turning the bus around for writes
system.mem_ctrls1.rdPerTurnAround::stdev    21.579214                       # Reads before turning the bus around for writes
system.mem_ctrls1.rdPerTurnAround::0-127        29974     99.98%     99.98% # Reads before turning the bus around for writes
system.mem_ctrls1.rdPerTurnAround::128-255            5      0.02%     99.99% # Reads before turning the bus around for writes
system.mem_ctrls1.rdPerTurnAround::1152-1279            1      0.00%    100.00% # Reads before turning the bus around for writes
system.mem_ctrls1.rdPerTurnAround::2816-2943            1      0.00%    100.00% # Reads before turning the bus around for writes
system.mem_ctrls1.rdPerTurnAround::total        29981                       # Reads before turning the bus around for writes
system.mem_ctrls1.wrPerTurnAround::samples        29981                       # Writes before turning the bus around for reads
system.mem_ctrls1.wrPerTurnAround::mean      5.989627                       # Writes before turning the bus around for reads
system.mem_ctrls1.wrPerTurnAround::gmean     5.690077                       # Writes before turning the bus around for reads
system.mem_ctrls1.wrPerTurnAround::stdev     2.401896                       # Writes before turning the bus around for reads
system.mem_ctrls1.wrPerTurnAround::4-7          25754     85.90%     85.90% # Writes before turning the bus around for reads
system.mem_ctrls1.wrPerTurnAround::8-11          2574      8.59%     94.49% # Writes before turning the bus around for reads
system.mem_ctrls1.wrPerTurnAround::12-15         1005      3.35%     97.84% # Writes before turning the bus around for reads
system.mem_ctrls1.wrPerTurnAround::16-19          648      2.16%    100.00% # Writes before turning the bus around for reads
system.mem_ctrls1.wrPerTurnAround::total        29981                       # Writes before turning the bus around for reads
system.mem_ctrls1.totQLat                 26470102181                       # Total ticks spent queuing
system.mem_ctrls1.totMemAccLat            32533495931                       # Total ticks spent from burst creation until serviced by the DRAM
system.mem_ctrls1.totBusLat                1616905000                       # Total ticks spent in databus transfers
system.mem_ctrls1.avgQLat                    81854.23                       # Average queueing delay per DRAM burst
system.mem_ctrls1.avgBusLat                   5000.00                       # Average bus latency per DRAM burst
system.mem_ctrls1.avgMemAccLat              100604.23                       # Average memory access latency per DRAM burst
system.mem_ctrls1.avgRdBW                      226.05                       # Average DRAM read bandwidth in MiByte/s
system.mem_ctrls1.avgWrBW                      125.53                       # Average achieved write bandwidth in MiByte/s
system.mem_ctrls1.avgRdBWSys                   226.07                       # Average system read bandwidth in MiByte/s
system.mem_ctrls1.avgWrBWSys                   125.53                       # Average system write bandwidth in MiByte/s
system.mem_ctrls1.peakBW                     12800.00                       # Theoretical peak bandwidth in MiByte/s
system.mem_ctrls1.busUtil                        2.75                       # Data bus utilization in percentage
system.mem_ctrls1.busUtilRead                    1.77                       # Data bus utilization in percentage for reads
system.mem_ctrls1.busUtilWrite                   0.98                       # Data bus utilization in percentage for writes
system.mem_ctrls1.avgRdQLen                      1.40                       # Average read queue length when enqueuing
system.mem_ctrls1.avgWrQLen                      2.99                       # Average write queue length when enqueuing
system.mem_ctrls1.readRowHits                  255223                       # Number of row buffer hits during reads
system.mem_ctrls1.writeRowHits                 117136                       # Number of row buffer hits during writes
system.mem_ctrls1.readRowHitRate                78.92                       # Row buffer hit rate for reads
system.mem_ctrls1.writeRowHitRate               65.23                       # Row buffer hit rate for writes
system.mem_ctrls1.avgGap                    182022.84                       # Average gap between requests
system.mem_ctrls1.pageHitRate                   74.03                       # Row buffer hit rate, read and write combined
system.mem_ctrls1.memoryStateTime::IDLE   15394454000                       # Time in different power states
system.mem_ctrls1.memoryStateTime::REF     3057080000                       # Time in different power states
system.mem_ctrls1.memoryStateTime::PRE_PDN            0                       # Time in different power states
system.mem_ctrls1.memoryStateTime::ACT    73101086500                       # Time in different power states
system.mem_ctrls1.memoryStateTime::ACT_PDN            0                       # Time in different power states
system.mem_ctrls1.actEnergy::0              498748320                       # Energy for activate commands per rank (pJ)
system.mem_ctrls1.actEnergy::1              488466720                       # Energy for activate commands per rank (pJ)
system.mem_ctrls1.preEnergy::0              272134500                       # Energy for precharge commands per rank (pJ)
system.mem_ctrls1.preEnergy::1              266524500                       # Energy for precharge commands per rank (pJ)
system.mem_ctrls1.readEnergy::0            1266696600                       # Energy for read commands per rank (pJ)
system.mem_ctrls1.readEnergy::1            1255542600                       # Energy for read commands per rank (pJ)
system.mem_ctrls1.writeEnergy::0            583433280                       # Energy for write commands per rank (pJ)
system.mem_ctrls1.writeEnergy::1            580180320                       # Energy for write commands per rank (pJ)
system.mem_ctrls1.refreshEnergy::0         5979648480                       # Energy for refresh commands per rank (pJ)
system.mem_ctrls1.refreshEnergy::1         5979648480                       # Energy for refresh commands per rank (pJ)
system.mem_ctrls1.actBackEnergy::0        37176847515                       # Energy for active background per rank (pJ)
system.mem_ctrls1.actBackEnergy::1        36220454775                       # Energy for active background per rank (pJ)
system.mem_ctrls1.preBackEnergy::0        22319322750                       # Energy for precharge background per rank (pJ)
system.mem_ctrls1.preBackEnergy::1        23158263750                       # Energy for precharge background per rank (pJ)
system.mem_ctrls1.totalEnergy::0          68096831445                       # Total energy per rank (pJ)
system.mem_ctrls1.totalEnergy::1          67949081145                       # Total energy per rank (pJ)
system.mem_ctrls1.averagePower::0          743.813183                       # Core power per rank (mW)
system.mem_ctrls1.averagePower::1          742.199325                       # Core power per rank (mW)
system.mem_ctrls2.bytes_read::ruby.dir_cntrl2     20687488                       # Number of bytes read from this memory
system.mem_ctrls2.bytes_read::total          20687488                       # Number of bytes read from this memory
system.mem_ctrls2.bytes_written::ruby.dir_cntrl2     11494912                       # Number of bytes written to this memory
system.mem_ctrls2.bytes_written::total       11494912                       # Number of bytes written to this memory
system.mem_ctrls2.num_reads::ruby.dir_cntrl2       323242                       # Number of read requests responded to by this memory
system.mem_ctrls2.num_reads::total             323242                       # Number of read requests responded to by this memory
system.mem_ctrls2.num_writes::ruby.dir_cntrl2       179608                       # Number of write requests responded to by this memory
system.mem_ctrls2.num_writes::total            179608                       # Number of write requests responded to by this memory
system.mem_ctrls2.bw_read::ruby.dir_cntrl2    225955037                       # Total read bandwidth from this memory (bytes/s)
system.mem_ctrls2.bw_read::total            225955037                       # Total read bandwidth from this memory (bytes/s)
system.mem_ctrls2.bw_write::ruby.dir_cntrl2    125550926                       # Write bandwidth from this memory (bytes/s)
system.mem_ctrls2.bw_write::total           125550926                       # Write bandwidth from this memory (bytes/s)
system.mem_ctrls2.bw_total::ruby.dir_cntrl2    351505963                       # Total bandwidth to/from this memory (bytes/s)
system.mem_ctrls2.bw_total::total           351505963                       # Total bandwidth to/from this memory (bytes/s)
system.mem_ctrls2.readReqs                     323242                       # Number of read requests accepted
system.mem_ctrls2.writeReqs                    179608                       # Number of write requests accepted
system.mem_ctrls2.readBursts                   323242                       # Number of DRAM read bursts, including those serviced by the write queue
system.mem_ctrls2.writeBursts                  179608                       # Number of DRAM write bursts, including those merged in the write queue
system.mem_ctrls2.bytesReadDRAM              20686464                       # Total number of bytes read from DRAM
system.mem_ctrls2.bytesReadWrQ                   1024                       # Total number of bytes read from write queue
system.mem_ctrls2.bytesWritten               11494784                       # Total number of bytes written to DRAM
system.mem_ctrls2.bytesReadSys               20687488                       # Total read bytes from the system interface side
system.mem_ctrls2.bytesWrittenSys            11494912                       # Total written bytes from the system interface side
system.mem_ctrls2.servicedByWrQ                    16                       # Number of DRAM read bursts serviced by the write queue
system.mem_ctrls2.mergedWrBursts                    0                       # Number of DRAM write bursts merged with an existing one
system.mem_ctrls2.neitherReadNorWriteReqs            0                       # Number of requests that are neither read nor write
system.mem_ctrls2.perBankRdBursts::0            19907                       # Per bank write bursts
system.mem_ctrls2.perBankRdBursts::1            20557                       # Per bank write bursts
system.mem_ctrls2.perBankRdBursts::2            20095                       # Per bank write bursts
system.mem_ctrls2.perBankRdBursts::3            20438                       # Per bank write bursts
system.mem_ctrls2.perBankRdBursts::4            20127                       # Per bank write bursts
system.mem_ctrls2.perBankRdBursts::5            20564                       # Per bank write bursts
system.mem_ctrls2.perBankRdBursts::6            20184                       # Per bank write bursts
system.mem_ctrls2.perBankRdBursts::7            20340                       # Per bank write bursts
system.mem_ctrls2.perBankRdBursts::8            20233                       # Per bank write bursts
system.mem_ctrls2.perBankRdBursts::9            20476                       # Per bank write bursts
system.mem_ctrls2.perBankRdBursts::10           20188                       # Per bank write bursts
system.mem_ctrls2.perBankRdBursts::11           20582                       # Per bank write bursts
system.mem_ctrls2.perBankRdBursts::12           19842                       # Per bank write bursts
system.mem_ctrls2.perBankRdBursts::13           19685                       # Per bank write bursts
system.mem_ctrls2.perBankRdBursts::14           19964                       # Per bank write bursts
system.mem_ctrls2.perBankRdBursts::15           20044                       # Per bank write bursts
system.mem_ctrls2.perBankWrBursts::0            11127                       # Per bank write bursts
system.mem_ctrls2.perBankWrBursts::1            11266                       # Per bank write bursts
system.mem_ctrls2.perBankWrBursts::2            11255                       # Per bank write bursts
system.mem_ctrls2.perBankWrBursts::3            11281                       # Per bank write bursts
system.mem_ctrls2.perBankWrBursts::4            11195                       # Per bank write bursts
system.mem_ctrls2.perBankWrBursts::5            11494                       # Per bank write bursts
system.mem_ctrls2.perBankWrBursts::6            11178                       # Per bank write bursts
system.mem_ctrls2.perBankWrBursts::7            11270                       # Per bank write bursts
system.mem_ctrls2.perBankWrBursts::8            11443                       # Per bank write bursts
system.mem_ctrls2.perBankWrBursts::9            11303                       # Per bank write bursts
system.mem_ctrls2.perBankWrBursts::10           11120                       # Per bank write bursts
system.mem_ctrls2.perBankWrBursts::11           11305                       # Per bank write bursts
system.mem_ctrls2.perBankWrBursts::12           10979                       # Per bank write bursts
system.mem_ctrls2.perBankWrBursts::13           10904                       # Per bank write bursts
system.mem_ctrls2.perBankWrBursts::14           11295                       # Per bank write bursts
system.mem_ctrls2.perBankWrBursts::15           11191                       # Per bank write bursts
system.mem_ctrls2.numRdRetry                    35091                       # Number of times read queue was full causing retry
system.mem_ctrls2.numWrRetry                     5261                       # Number of times write queue was full causing retry
system.mem_ctrls2.totGap                  91555631000                       # Total gap between requests
system.mem_ctrls2.readPktSize::0                    0                       # Read request sizes (log2)
system.mem_ctrls2.readPktSize::1                    0                       # Read request sizes (log2)
system.mem_ctrls2.readPktSize::2                    0                       # Read request sizes (log2)
system.mem_ctrls2.readPktSize::3                    0                       # Read request sizes (log2)
system.mem_ctrls2.readPktSize::4                    0                       # Read request sizes (log2)
system.mem_ctrls2.readPktSize::5                    0                       # Read request sizes (log2)
system.mem_ctrls2.readPktSize::6               323242                       # Read request sizes (log2)
system.mem_ctrls2.writePktSize::0                   0                       # Write request sizes (log2)
system.mem_ctrls2.writePktSize::1                   0                       # Write request sizes (log2)
system.mem_ctrls2.writePktSize::2                   0                       # Write request sizes (log2)
system.mem_ctrls2.writePktSize::3                   0                       # Write request sizes (log2)
system.mem_ctrls2.writePktSize::4                   0                       # Write request sizes (log2)
system.mem_ctrls2.writePktSize::5                   0                       # Write request sizes (log2)
system.mem_ctrls2.writePktSize::6              179608                       # Write request sizes (log2)
system.mem_ctrls2.rdQLenPdf::0                 130410                       # What read queue length does an incoming req see
system.mem_ctrls2.rdQLenPdf::1                  13739                       # What read queue length does an incoming req see
system.mem_ctrls2.rdQLenPdf::2                  13600                       # What read queue length does an incoming req see
system.mem_ctrls2.rdQLenPdf::3                  12683                       # What read queue length does an incoming req see
system.mem_ctrls2.rdQLenPdf::4                  11575                       # What read queue length does an incoming req see
system.mem_ctrls2.rdQLenPdf::5                  10858                       # What read queue length does an incoming req see
system.mem_ctrls2.rdQLenPdf::6                   9794                       # What read queue length does an incoming req see
system.mem_ctrls2.rdQLenPdf::7                   8846                       # What read queue length does an incoming req see
system.mem_ctrls2.rdQLenPdf::8                   7564                       # What read queue length does an incoming req see
system.mem_ctrls2.rdQLenPdf::9                   6822                       # What read queue length does an incoming req see
system.mem_ctrls2.rdQLenPdf::10                  6127                       # What read queue length does an incoming req see
system.mem_ctrls2.rdQLenPdf::11                  5631                       # What read queue length does an incoming req see
system.mem_ctrls2.rdQLenPdf::12                  5065                       # What read queue length does an incoming req see
system.mem_ctrls2.rdQLenPdf::13                  4470                       # What read queue length does an incoming req see
system.mem_ctrls2.rdQLenPdf::14                  4076                       # What read queue length does an incoming req see
system.mem_ctrls2.rdQLenPdf::15                  3721                       # What read queue length does an incoming req see
system.mem_ctrls2.rdQLenPdf::16                  3233                       # What read queue length does an incoming req see
system.mem_ctrls2.rdQLenPdf::17                  3004                       # What read queue length does an incoming req see
system.mem_ctrls2.rdQLenPdf::18                  2698                       # What read queue length does an incoming req see
system.mem_ctrls2.rdQLenPdf::19                  2464                       # What read queue length does an incoming req see
system.mem_ctrls2.rdQLenPdf::20                  2294                       # What read queue length does an incoming req see
system.mem_ctrls2.rdQLenPdf::21                  2241                       # What read queue length does an incoming req see
system.mem_ctrls2.rdQLenPdf::22                  2080                       # What read queue length does an incoming req see
system.mem_ctrls2.rdQLenPdf::23                  1952                       # What read queue length does an incoming req see
system.mem_ctrls2.rdQLenPdf::24                  1762                       # What read queue length does an incoming req see
system.mem_ctrls2.rdQLenPdf::25                  1653                       # What read queue length does an incoming req see
system.mem_ctrls2.rdQLenPdf::26                  1634                       # What read queue length does an incoming req see
system.mem_ctrls2.rdQLenPdf::27                  1540                       # What read queue length does an incoming req see
system.mem_ctrls2.rdQLenPdf::28                  1546                       # What read queue length does an incoming req see
system.mem_ctrls2.rdQLenPdf::29                  1521                       # What read queue length does an incoming req see
system.mem_ctrls2.rdQLenPdf::30                  1661                       # What read queue length does an incoming req see
system.mem_ctrls2.rdQLenPdf::31                 36962                       # What read queue length does an incoming req see
system.mem_ctrls2.wrQLenPdf::0                  29420                       # What write queue length does an incoming req see
system.mem_ctrls2.wrQLenPdf::1                  31062                       # What write queue length does an incoming req see
system.mem_ctrls2.wrQLenPdf::2                  31896                       # What write queue length does an incoming req see
system.mem_ctrls2.wrQLenPdf::3                  32310                       # What write queue length does an incoming req see
system.mem_ctrls2.wrQLenPdf::4                  32560                       # What write queue length does an incoming req see
system.mem_ctrls2.wrQLenPdf::5                   6658                       # What write queue length does an incoming req see
system.mem_ctrls2.wrQLenPdf::6                   6213                       # What write queue length does an incoming req see
system.mem_ctrls2.wrQLenPdf::7                   9489                       # What write queue length does an incoming req see
system.mem_ctrls2.bytesPerActivate::samples       130520                       # Bytes accessed per row activation
system.mem_ctrls2.bytesPerActivate::mean   246.555440                       # Bytes accessed per row activation
system.mem_ctrls2.bytesPerActivate::gmean   183.803662                       # Bytes accessed per row activation
system.mem_ctrls2.bytesPerActivate::stdev   196.749596                       # Bytes accessed per row activation
system.mem_ctrls2.bytesPerActivate::0-127        34815     26.67%     26.67% # Bytes accessed per row activation
system.mem_ctrls2.bytesPerActivate::128-255        34081     26.11%     52.79% # Bytes accessed per row activation
system.mem_ctrls2.bytesPerActivate::256-383        40117     30.74%     83.52% # Bytes accessed per row activation
system.mem_ctrls2.bytesPerActivate::384-511         6936      5.31%     88.84% # Bytes accessed per row activation
system.mem_ctrls2.bytesPerActivate::512-639         7752      5.94%     94.78% # Bytes accessed per row activation
system.mem_ctrls2.bytesPerActivate::640-767         2156      1.65%     96.43% # Bytes accessed per row activation
system.mem_ctrls2.bytesPerActivate::768-895         1298      0.99%     97.42% # Bytes accessed per row activation
system.mem_ctrls2.bytesPerActivate::896-1023         1096      0.84%     98.26% # Bytes accessed per row activation
system.mem_ctrls2.bytesPerActivate::1024-1151         2269      1.74%    100.00% # Bytes accessed per row activation
system.mem_ctrls2.bytesPerActivate::total       130520                       # Bytes accessed per row activation
system.mem_ctrls2.rdPerTurnAround::samples        29934                       # Reads before turning the bus around for writes
system.mem_ctrls2.rdPerTurnAround::mean     10.797788                       # Reads before turning the bus around for writes
system.mem_ctrls2.rdPerTurnAround::stdev    21.605835                       # Reads before turning the bus around for writes
system.mem_ctrls2.rdPerTurnAround::0-127        29928     99.98%     99.98% # Reads before turning the bus around for writes
system.mem_ctrls2.rdPerTurnAround::128-255            4      0.01%     99.99% # Reads before turning the bus around for writes
system.mem_ctrls2.rdPerTurnAround::1152-1279            1      0.00%    100.00% # Reads before turning the bus around for writes
system.mem_ctrls2.rdPerTurnAround::2816-2943            1      0.00%    100.00% # Reads before turning the bus around for writes
system.mem_ctrls2.rdPerTurnAround::total        29934                       # Reads before turning the bus around for writes
system.mem_ctrls2.wrPerTurnAround::samples        29934                       # Writes before turning the bus around for reads
system.mem_ctrls2.wrPerTurnAround::mean      6.000067                       # Writes before turning the bus around for reads
system.mem_ctrls2.wrPerTurnAround::gmean     5.695538                       # Writes before turning the bus around for reads
system.mem_ctrls2.wrPerTurnAround::stdev     2.425615                       # Writes before turning the bus around for reads
system.mem_ctrls2.wrPerTurnAround::4-7          25693     85.83%     85.83% # Writes before turning the bus around for reads
system.mem_ctrls2.wrPerTurnAround::8-11          2543      8.50%     94.33% # Writes before turning the bus around for reads
system.mem_ctrls2.wrPerTurnAround::12-15         1023      3.42%     97.75% # Writes before turning the bus around for reads
system.mem_ctrls2.wrPerTurnAround::16-19          675      2.25%    100.00% # Writes before turning the bus around for reads
system.mem_ctrls2.wrPerTurnAround::total        29934                       # Writes before turning the bus around for reads
system.mem_ctrls2.totQLat                 27293571623                       # Total ticks spent queuing
system.mem_ctrls2.totMemAccLat            33354059123                       # Total ticks spent from burst creation until serviced by the DRAM
system.mem_ctrls2.totBusLat                1616130000                       # Total ticks spent in databus transfers
system.mem_ctrls2.avgQLat                    84441.14                       # Average queueing delay per DRAM burst
system.mem_ctrls2.avgBusLat                   5000.00                       # Average bus latency per DRAM burst
system.mem_ctrls2.avgMemAccLat              103191.14                       # Average memory access latency per DRAM burst
system.mem_ctrls2.avgRdBW                      225.94                       # Average DRAM read bandwidth in MiByte/s
system.mem_ctrls2.avgWrBW                      125.55                       # Average achieved write bandwidth in MiByte/s
system.mem_ctrls2.avgRdBWSys                   225.96                       # Average system read bandwidth in MiByte/s
system.mem_ctrls2.avgWrBWSys                   125.55                       # Average system write bandwidth in MiByte/s
system.mem_ctrls2.peakBW                     12800.00                       # Theoretical peak bandwidth in MiByte/s
system.mem_ctrls2.busUtil                        2.75                       # Data bus utilization in percentage
system.mem_ctrls2.busUtilRead                    1.77                       # Data bus utilization in percentage for reads
system.mem_ctrls2.busUtilWrite                   0.98                       # Data bus utilization in percentage for writes
system.mem_ctrls2.avgRdQLen                      1.41                       # Average read queue length when enqueuing
system.mem_ctrls2.avgWrQLen                      3.00                       # Average write queue length when enqueuing
system.mem_ctrls2.readRowHits                  255101                       # Number of row buffer hits during reads
system.mem_ctrls2.writeRowHits                 117203                       # Number of row buffer hits during writes
system.mem_ctrls2.readRowHitRate                78.92                       # Row buffer hit rate for reads
system.mem_ctrls2.writeRowHitRate               65.25                       # Row buffer hit rate for writes
system.mem_ctrls2.avgGap                    182073.44                       # Average gap between requests
system.mem_ctrls2.pageHitRate                   74.04                       # Row buffer hit rate, read and write combined
system.mem_ctrls2.memoryStateTime::IDLE   15448644750                       # Time in different power states
system.mem_ctrls2.memoryStateTime::REF     3057080000                       # Time in different power states
system.mem_ctrls2.memoryStateTime::PRE_PDN            0                       # Time in different power states
system.mem_ctrls2.memoryStateTime::ACT    73046121250                       # Time in different power states
system.mem_ctrls2.memoryStateTime::ACT_PDN            0                       # Time in different power states
system.mem_ctrls2.actEnergy::0              500199840                       # Energy for activate commands per rank (pJ)
system.mem_ctrls2.actEnergy::1              486501120                       # Energy for activate commands per rank (pJ)
system.mem_ctrls2.preEnergy::0              272926500                       # Energy for precharge commands per rank (pJ)
system.mem_ctrls2.preEnergy::1              265452000                       # Energy for precharge commands per rank (pJ)
system.mem_ctrls2.readEnergy::0            1265183400                       # Energy for read commands per rank (pJ)
system.mem_ctrls2.readEnergy::1            1255878000                       # Energy for read commands per rank (pJ)
system.mem_ctrls2.writeEnergy::0            583614720                       # Energy for write commands per rank (pJ)
system.mem_ctrls2.writeEnergy::1            580199760                       # Energy for write commands per rank (pJ)
system.mem_ctrls2.refreshEnergy::0         5979648480                       # Energy for refresh commands per rank (pJ)
system.mem_ctrls2.refreshEnergy::1         5979648480                       # Energy for refresh commands per rank (pJ)
system.mem_ctrls2.actBackEnergy::0        37061826930                       # Energy for active background per rank (pJ)
system.mem_ctrls2.actBackEnergy::1        36139247730                       # Energy for active background per rank (pJ)
system.mem_ctrls2.preBackEnergy::0        22420218000                       # Energy for precharge background per rank (pJ)
system.mem_ctrls2.preBackEnergy::1        23229498000                       # Energy for precharge background per rank (pJ)
system.mem_ctrls2.totalEnergy::0          68083617870                       # Total energy per rank (pJ)
system.mem_ctrls2.totalEnergy::1          67936425090                       # Total energy per rank (pJ)
system.mem_ctrls2.averagePower::0          743.668853                       # Core power per rank (mW)
system.mem_ctrls2.averagePower::1          742.061085                       # Core power per rank (mW)
system.mem_ctrls3.bytes_read::ruby.dir_cntrl3     20686336                       # Number of bytes read from this memory
system.mem_ctrls3.bytes_read::total          20686336                       # Number of bytes read from this memory
system.mem_ctrls3.bytes_written::ruby.dir_cntrl3     11488832                       # Number of bytes written to this memory
system.mem_ctrls3.bytes_written::total       11488832                       # Number of bytes written to this memory
system.mem_ctrls3.num_reads::ruby.dir_cntrl3       323224                       # Number of read requests responded to by this memory
system.mem_ctrls3.num_reads::total             323224                       # Number of read requests responded to by this memory
system.mem_ctrls3.num_writes::ruby.dir_cntrl3       179513                       # Number of write requests responded to by this memory
system.mem_ctrls3.num_writes::total            179513                       # Number of write requests responded to by this memory
system.mem_ctrls3.bw_read::ruby.dir_cntrl3    225942455                       # Total read bandwidth from this memory (bytes/s)
system.mem_ctrls3.bw_read::total            225942455                       # Total read bandwidth from this memory (bytes/s)
system.mem_ctrls3.bw_write::ruby.dir_cntrl3    125484518                       # Write bandwidth from this memory (bytes/s)
system.mem_ctrls3.bw_write::total           125484518                       # Write bandwidth from this memory (bytes/s)
system.mem_ctrls3.bw_total::ruby.dir_cntrl3    351426973                       # Total bandwidth to/from this memory (bytes/s)
system.mem_ctrls3.bw_total::total           351426973                       # Total bandwidth to/from this memory (bytes/s)
system.mem_ctrls3.readReqs                     323225                       # Number of read requests accepted
system.mem_ctrls3.writeReqs                    179513                       # Number of write requests accepted
system.mem_ctrls3.readBursts                   323225                       # Number of DRAM read bursts, including those serviced by the write queue
system.mem_ctrls3.writeBursts                  179513                       # Number of DRAM write bursts, including those merged in the write queue
system.mem_ctrls3.bytesReadDRAM              20685696                       # Total number of bytes read from DRAM
system.mem_ctrls3.bytesReadWrQ                    704                       # Total number of bytes read from write queue
system.mem_ctrls3.bytesWritten               11488640                       # Total number of bytes written to DRAM
system.mem_ctrls3.bytesReadSys               20686400                       # Total read bytes from the system interface side
system.mem_ctrls3.bytesWrittenSys            11488832                       # Total written bytes from the system interface side
system.mem_ctrls3.servicedByWrQ                    11                       # Number of DRAM read bursts serviced by the write queue
system.mem_ctrls3.mergedWrBursts                    0                       # Number of DRAM write bursts merged with an existing one
system.mem_ctrls3.neitherReadNorWriteReqs            0                       # Number of requests that are neither read nor write
system.mem_ctrls3.perBankRdBursts::0            19945                       # Per bank write bursts
system.mem_ctrls3.perBankRdBursts::1            20521                       # Per bank write bursts
system.mem_ctrls3.perBankRdBursts::2            20104                       # Per bank write bursts
system.mem_ctrls3.perBankRdBursts::3            20451                       # Per bank write bursts
system.mem_ctrls3.perBankRdBursts::4            20025                       # Per bank write bursts
system.mem_ctrls3.perBankRdBursts::5            20581                       # Per bank write bursts
system.mem_ctrls3.perBankRdBursts::6            20211                       # Per bank write bursts
system.mem_ctrls3.perBankRdBursts::7            20313                       # Per bank write bursts
system.mem_ctrls3.perBankRdBursts::8            20236                       # Per bank write bursts
system.mem_ctrls3.perBankRdBursts::9            20470                       # Per bank write bursts
system.mem_ctrls3.perBankRdBursts::10           20250                       # Per bank write bursts
system.mem_ctrls3.perBankRdBursts::11           20528                       # Per bank write bursts
system.mem_ctrls3.perBankRdBursts::12           19887                       # Per bank write bursts
system.mem_ctrls3.perBankRdBursts::13           19666                       # Per bank write bursts
system.mem_ctrls3.perBankRdBursts::14           19953                       # Per bank write bursts
system.mem_ctrls3.perBankRdBursts::15           20073                       # Per bank write bursts
system.mem_ctrls3.perBankWrBursts::0            11134                       # Per bank write bursts
system.mem_ctrls3.perBankWrBursts::1            11252                       # Per bank write bursts
system.mem_ctrls3.perBankWrBursts::2            11259                       # Per bank write bursts
system.mem_ctrls3.perBankWrBursts::3            11258                       # Per bank write bursts
system.mem_ctrls3.perBankWrBursts::4            11204                       # Per bank write bursts
system.mem_ctrls3.perBankWrBursts::5            11483                       # Per bank write bursts
system.mem_ctrls3.perBankWrBursts::6            11153                       # Per bank write bursts
system.mem_ctrls3.perBankWrBursts::7            11266                       # Per bank write bursts
system.mem_ctrls3.perBankWrBursts::8            11437                       # Per bank write bursts
system.mem_ctrls3.perBankWrBursts::9            11302                       # Per bank write bursts
system.mem_ctrls3.perBankWrBursts::10           11115                       # Per bank write bursts
system.mem_ctrls3.perBankWrBursts::11           11302                       # Per bank write bursts
system.mem_ctrls3.perBankWrBursts::12           10951                       # Per bank write bursts
system.mem_ctrls3.perBankWrBursts::13           10910                       # Per bank write bursts
system.mem_ctrls3.perBankWrBursts::14           11297                       # Per bank write bursts
system.mem_ctrls3.perBankWrBursts::15           11187                       # Per bank write bursts
system.mem_ctrls3.numRdRetry                    32231                       # Number of times read queue was full causing retry
system.mem_ctrls3.numWrRetry                     5217                       # Number of times write queue was full causing retry
system.mem_ctrls3.totGap                  91555031000                       # Total gap between requests
system.mem_ctrls3.readPktSize::0                    0                       # Read request sizes (log2)
system.mem_ctrls3.readPktSize::1                    0                       # Read request sizes (log2)
system.mem_ctrls3.readPktSize::2                    0                       # Read request sizes (log2)
system.mem_ctrls3.readPktSize::3                    0                       # Read request sizes (log2)
system.mem_ctrls3.readPktSize::4                    0                       # Read request sizes (log2)
system.mem_ctrls3.readPktSize::5                    0                       # Read request sizes (log2)
system.mem_ctrls3.readPktSize::6               323225                       # Read request sizes (log2)
system.mem_ctrls3.writePktSize::0                   0                       # Write request sizes (log2)
system.mem_ctrls3.writePktSize::1                   0                       # Write request sizes (log2)
system.mem_ctrls3.writePktSize::2                   0                       # Write request sizes (log2)
system.mem_ctrls3.writePktSize::3                   0                       # Write request sizes (log2)
system.mem_ctrls3.writePktSize::4                   0                       # Write request sizes (log2)
system.mem_ctrls3.writePktSize::5                   0                       # Write request sizes (log2)
system.mem_ctrls3.writePktSize::6              179513                       # Write request sizes (log2)
system.mem_ctrls3.rdQLenPdf::0                 130047                       # What read queue length does an incoming req see
system.mem_ctrls3.rdQLenPdf::1                  13983                       # What read queue length does an incoming req see
system.mem_ctrls3.rdQLenPdf::2                  13768                       # What read queue length does an incoming req see
system.mem_ctrls3.rdQLenPdf::3                  12998                       # What read queue length does an incoming req see
system.mem_ctrls3.rdQLenPdf::4                  11994                       # What read queue length does an incoming req see
system.mem_ctrls3.rdQLenPdf::5                  11086                       # What read queue length does an incoming req see
system.mem_ctrls3.rdQLenPdf::6                  10013                       # What read queue length does an incoming req see
system.mem_ctrls3.rdQLenPdf::7                   9097                       # What read queue length does an incoming req see
system.mem_ctrls3.rdQLenPdf::8                   7720                       # What read queue length does an incoming req see
system.mem_ctrls3.rdQLenPdf::9                   7062                       # What read queue length does an incoming req see
system.mem_ctrls3.rdQLenPdf::10                  6341                       # What read queue length does an incoming req see
system.mem_ctrls3.rdQLenPdf::11                  5705                       # What read queue length does an incoming req see
system.mem_ctrls3.rdQLenPdf::12                  5090                       # What read queue length does an incoming req see
system.mem_ctrls3.rdQLenPdf::13                  4675                       # What read queue length does an incoming req see
system.mem_ctrls3.rdQLenPdf::14                  4188                       # What read queue length does an incoming req see
system.mem_ctrls3.rdQLenPdf::15                  3644                       # What read queue length does an incoming req see
system.mem_ctrls3.rdQLenPdf::16                  3318                       # What read queue length does an incoming req see
system.mem_ctrls3.rdQLenPdf::17                  3038                       # What read queue length does an incoming req see
system.mem_ctrls3.rdQLenPdf::18                  2848                       # What read queue length does an incoming req see
system.mem_ctrls3.rdQLenPdf::19                  2555                       # What read queue length does an incoming req see
system.mem_ctrls3.rdQLenPdf::20                  2355                       # What read queue length does an incoming req see
system.mem_ctrls3.rdQLenPdf::21                  2224                       # What read queue length does an incoming req see
system.mem_ctrls3.rdQLenPdf::22                  2145                       # What read queue length does an incoming req see
system.mem_ctrls3.rdQLenPdf::23                  2003                       # What read queue length does an incoming req see
system.mem_ctrls3.rdQLenPdf::24                  1907                       # What read queue length does an incoming req see
[...]
system.ruby.L2Cache_Controller.MT_MB.L1_GETS::total         3134                      
system.ruby.L2Cache_Controller.MT_MB.L1_PUTX |           0      0.00%      0.00% |           1      1.67%      1.67% |           1      1.67%      3.33% |           0      0.00%      3.33% |           4      6.67%     10.00% |           0      0.00%     10.00% |           2      3.33%     13.33% |           1      1.67%     15.00% |           1      1.67%     16.67% |           0      0.00%     16.67% |           1      1.67%     18.33% |           1      1.67%     20.00% |           4      6.67%     26.67% |           0      0.00%     26.67% |           3      5.00%     31.67% |           4      6.67%     38.33% |           1      1.67%     40.00% |           1      1.67%     41.67% |           2      3.33%     45.00% |           3      5.00%     50.00% |           5      8.33%     58.33% |           1      1.67%     60.00% |           4      6.67%     66.67% |           0      0.00%     66.67% |           5      8.33%     75.00% |           2      3.33%     78.33% |           2      3.33%     81.67% |           3      5.00%     86.67% |           1      1.67%     88.33% |           3      5.00%     93.33% |           3      5.00%     98.33% |           1      1.67%    100.00%
system.ruby.L2Cache_Controller.MT_MB.L1_PUTX::total           60                      
system.ruby.L2Cache_Controller.MT_MB.Exclusive_Unblock |      148698      5.78%      5.78% |       78734      3.06%      8.84% |       77527      3.01%     11.86% |       78415      3.05%     14.91% |       77630      3.02%     17.93% |       77436      3.01%     20.94% |       77346      3.01%     23.95% |       77080      3.00%     26.94% |       77355      3.01%     29.95% |       78570      3.06%     33.01% |       79454      3.09%     36.10% |       79110      3.08%     39.17% |       78879      3.07%     42.24% |       77596      3.02%     45.26% |       76842      2.99%     48.25% |       77258      3.00%     51.25% |       78325      3.05%     54.30% |       77824      3.03%     57.32% |       78272      3.04%     60.37% |       78373      3.05%     63.42% |       78049      3.04%     66.45% |       80048      3.11%     69.56% |       78011      3.03%     72.60% |       77511      3.01%     75.61% |       77579      3.02%     78.63% |       77979      3.03%     81.66% |       77705      3.02%     84.68% |       77394      3.01%     87.69% |       77740      3.02%     90.72% |       77262      3.00%     93.72% |       79985      3.11%     96.83% |       81482      3.17%    100.00%
system.ruby.L2Cache_Controller.MT_MB.Exclusive_Unblock::total      2571469                      
system.ruby.L2Cache_Controller.MT_IIB.L1_GETS |           0      0.00%      0.00% |           1      3.12%      3.12% |           0      0.00%      3.12% |           3      9.38%     12.50% |           1      3.12%     15.62% |           1      3.12%     18.75% |           1      3.12%     21.88% |           2      6.25%     28.12% |           1      3.12%     31.25% |           4     12.50%     43.75% |           2      6.25%     50.00% |           1      3.12%     53.12% |           2      6.25%     59.38% |           1      3.12%     62.50% |           0      0.00%     62.50% |           1      3.12%     65.62% |           0      0.00%     65.62% |           0      0.00%     65.62% |           1      3.12%     68.75% |           1      3.12%     71.88% |           2      6.25%     78.12% |           0      0.00%     78.12% |           1      3.12%     81.25% |           2      6.25%     87.50% |           0      0.00%     87.50% |           1      3.12%     90.62% |           1      3.12%     93.75% |           1      3.12%     96.88% |           0      0.00%     96.88% |           0      0.00%     96.88% |           1      3.12%    100.00% |           0      0.00%    100.00%
system.ruby.L2Cache_Controller.MT_IIB.L1_GETS::total           32                      
system.ruby.L2Cache_Controller.MT_IIB.L1_PUTX |           2      1.28%      1.28% |           1      0.64%      1.92% |           2      1.28%      3.21% |           6      3.85%      7.05% |           4      2.56%      9.62% |           7      4.49%     14.10% |           2      1.28%     15.38% |           3      1.92%     17.31% |           4      2.56%     19.87% |           2      1.28%     21.15% |           5      3.21%     24.36% |           8      5.13%     29.49% |           4      2.56%     32.05% |           6      3.85%     35.90% |           8      5.13%     41.03% |           4      2.56%     43.59% |          11      7.05%     50.64% |           3      1.92%     52.56% |           3      1.92%     54.49% |          10      6.41%     60.90% |          10      6.41%     67.31% |           6      3.85%     71.15% |           6      3.85%     75.00% |           7      4.49%     79.49% |           6      3.85%     83.33% |           4      2.56%     85.90% |           2      1.28%     87.18% |           6      3.85%     91.03% |           3      1.92%     92.95% |           7      4.49%     97.44% |           3      1.92%     99.36% |           1      0.64%    100.00%
system.ruby.L2Cache_Controller.MT_IIB.L1_PUTX::total          156                      
system.ruby.L2Cache_Controller.MT_IIB.WB_Data |           0      0.00%      0.00% |           0      0.00%      0.00% |           0      0.00%      0.00% |           0      0.00%      0.00% |           0      0.00%      0.00% |           0      0.00%      0.00% |           0      0.00%      0.00% |           0      0.00%      0.00% |           0      0.00%      0.00% |           0      0.00%      0.00% |           0      0.00%      0.00% |           0      0.00%      0.00% |           0      0.00%      0.00% |           0      0.00%      0.00% |           0      0.00%      0.00% |           0      0.00%      0.00% |           0      0.00%      0.00% |           0      0.00%      0.00% |           0      0.00%      0.00% |           0      0.00%      0.00% |           0      0.00%      0.00% |           0      0.00%      0.00% |           0      0.00%      0.00% |           0      0.00%      0.00% |           0      0.00%      0.00% |           2    100.00%    100.00% |           0      0.00%    100.00% |           0      0.00%    100.00% |           0      0.00%    100.00% |           0      0.00%    100.00% |           0      0.00%    100.00% |           0      0.00%    100.00%
system.ruby.L2Cache_Controller.MT_IIB.WB_Data::total            2                      
system.ruby.L2Cache_Controller.MT_IIB.WB_Data_clean |        1285      2.84%      2.84% |        1317      2.91%      5.75% |        1366      3.02%      8.76% |        1364      3.01%     11.78% |        1396      3.08%     14.86% |        1424      3.15%     18.01% |        1465      3.24%     21.24% |        1403      3.10%     24.34% |        1369      3.02%     27.36% |        1412      3.12%     30.48% |        1451      3.20%     33.69% |        1405      3.10%     36.79% |        1475      3.26%     40.05% |        1475      3.26%     43.31% |        1432      3.16%     46.47% |        1447      3.20%     49.67% |        1453      3.21%     52.87% |        1447      3.20%     56.07% |        1487      3.28%     59.36% |        1452      3.21%     62.56% |        1444      3.19%     65.75% |        1402      3.10%     68.85% |        1411      3.12%     71.96% |        1367      3.02%     74.98% |        1373      3.03%     78.02% |        1371      3.03%     81.04% |        1401      3.09%     84.14% |        1417      3.13%     87.27% |        1420      3.14%     90.41% |        1444      3.19%     93.59% |        1472      3.25%     96.85% |        1428      3.15%    100.00%
system.ruby.L2Cache_Controller.MT_IIB.WB_Data_clean::total        45275                      
system.ruby.L2Cache_Controller.MT_IIB.Unblock |          33      1.45%      1.45% |          32      1.41%      2.86% |          44      1.94%      4.80% |          45      1.98%      6.78% |          56      2.47%      9.25% |          35      1.54%     10.79% |          38      1.67%     12.47% |          48      2.11%     14.58% |          93      4.10%     18.68% |          61      2.69%     21.37% |          94      4.14%     25.51% |         117      5.15%     30.66% |          72      3.17%     33.83% |          90      3.96%     37.80% |         123      5.42%     43.22% |          65      2.86%     46.08% |          81      3.57%     49.65% |          84      3.70%     53.35% |          55      2.42%     55.77% |          77      3.39%     59.16% |         110      4.85%     64.01% |          89      3.92%     67.93% |         107      4.71%     72.64% |          86      3.79%     76.43% |          90      3.96%     80.40% |          78      3.44%     83.83% |          64      2.82%     86.65% |          67      2.95%     89.60% |          67      2.95%     92.56% |          45      1.98%     94.54% |          65      2.86%     97.40% |          59      2.60%    100.00%
system.ruby.L2Cache_Controller.MT_IIB.Unblock::total         2270                      
system.ruby.L2Cache_Controller.MT_IB.WB_Data_clean |          33      1.45%      1.45% |          32      1.41%      2.86% |          44      1.94%      4.80% |          45      1.98%      6.78% |          56      2.47%      9.25% |          35      1.54%     10.79% |          38      1.67%     12.47% |          48      2.11%     14.58% |          93      4.10%     18.68% |          61      2.69%     21.37% |          94      4.14%     25.51% |         117      5.15%     30.66% |          72      3.17%     33.83% |          90      3.96%     37.80% |         123      5.42%     43.22% |          65      2.86%     46.08% |          81      3.57%     49.65% |          84      3.70%     53.35% |          55      2.42%     55.77% |          77      3.39%     59.16% |         110      4.85%     64.01% |          89      3.92%     67.93% |         107      4.71%     72.64% |          86      3.79%     76.43% |          90      3.96%     80.40% |          78      3.44%     83.83% |          64      2.82%     86.65% |          67      2.95%     89.60% |          67      2.95%     92.56% |          45      1.98%     94.54% |          65      2.86%     97.40% |          59      2.60%    100.00%
system.ruby.L2Cache_Controller.MT_IB.WB_Data_clean::total         2270                      
system.ruby.L2Cache_Controller.MT_SB.L1_GETS |           0      0.00%      0.00% |           0      0.00%      0.00% |           0      0.00%      0.00% |           0      0.00%      0.00% |           0      0.00%      0.00% |           0      0.00%      0.00% |           0      0.00%      0.00% |           0      0.00%      0.00% |           0      0.00%      0.00% |           0      0.00%      0.00% |           0      0.00%      0.00% |           0      0.00%      0.00% |           0      0.00%      0.00% |           0      0.00%      0.00% |           0      0.00%      0.00% |           1     20.00%     20.00% |           0      0.00%     20.00% |           0      0.00%     20.00% |           1     20.00%     40.00% |           0      0.00%     40.00% |           0      0.00%     40.00% |           0      0.00%     40.00% |           2     40.00%     80.00% |           0      0.00%     80.00% |           0      0.00%     80.00% |           0      0.00%     80.00% |           0      0.00%     80.00% |           0      0.00%     80.00% |           0      0.00%     80.00% |           0      0.00%     80.00% |           1     20.00%    100.00% |           0      0.00%    100.00%
system.ruby.L2Cache_Controller.MT_SB.L1_GETS::total            5                      
system.ruby.L2Cache_Controller.MT_SB.L1_PUTX |           0      0.00%      0.00% |           0      0.00%      0.00% |           0      0.00%      0.00% |           0      0.00%      0.00% |           0      0.00%      0.00% |           0      0.00%      0.00% |           0      0.00%      0.00% |           0      0.00%      0.00% |           1      8.33%      8.33% |           1      8.33%     16.67% |           1      8.33%     25.00% |           1      8.33%     33.33% |           0      0.00%     33.33% |           1      8.33%     41.67% |           0      0.00%     41.67% |           1      8.33%     50.00% |           0      0.00%     50.00% |           2     16.67%     66.67% |           0      0.00%     66.67% |           1      8.33%     75.00% |           2     16.67%     91.67% |           0      0.00%     91.67% |           0      0.00%     91.67% |           0      0.00%     91.67% |           0      0.00%     91.67% |           1      8.33%    100.00% |           0      0.00%    100.00% |           0      0.00%    100.00% |           0      0.00%    100.00% |           0      0.00%    100.00% |           0      0.00%    100.00% |           0      0.00%    100.00%
system.ruby.L2Cache_Controller.MT_SB.L1_PUTX::total           12                      
system.ruby.L2Cache_Controller.MT_SB.Unblock |        1285      2.84%      2.84% |        1317      2.91%      5.75% |        1366      3.02%      8.76% |        1364      3.01%     11.78% |        1396      3.08%     14.86% |        1424      3.15%     18.00% |        1465      3.24%     21.24% |        1403      3.10%     24.34% |        1369      3.02%     27.36% |        1412      3.12%     30.48% |        1451      3.20%     33.69% |        1405      3.10%     36.79% |        1475      3.26%     40.05% |        1475      3.26%     43.30% |        1432      3.16%     46.47% |        1447      3.20%     49.66% |        1453      3.21%     52.87% |        1447      3.20%     56.07% |        1487      3.28%     59.35% |        1452      3.21%     62.56% |        1444      3.19%     65.75% |        1402      3.10%     68.85% |        1411      3.12%     71.96% |        1367      3.02%     74.98% |        1373      3.03%     78.01% |        1373      3.03%     81.05% |        1401      3.09%     84.14% |        1417      3.13%     87.27% |        1420      3.14%     90.41% |        1444      3.19%     93.59% |        1472      3.25%     96.85% |        1428      3.15%    100.00%
system.ruby.L2Cache_Controller.MT_SB.Unblock::total        45277                      
system.ruby.SimicsNetworkPortInterface_Controller.MessageSend |      443377     21.65%     21.65% |     1023835     50.00%     71.65% |       36170      1.77%     73.42% |       37093      1.81%     75.23% |       36136      1.76%     77.00% |       36945      1.80%     78.80% |       36288      1.77%     80.57% |       36927      1.80%     82.38% |       35945      1.76%     84.13% |       36062      1.76%     85.89% |       35777      1.75%     87.64% |       36140      1.76%     89.40% |       36496      1.78%     91.19% |       36188      1.77%     92.95% |       35567      1.74%     94.69% |       35912      1.75%     96.44% |       36111      1.76%     98.21% |       36701      1.79%    100.00% |           0      0.00%    100.00% |           0      0.00%    100.00% |           0      0.00%    100.00% |           0      0.00%    100.00% |           0      0.00%    100.00% |           0      0.00%    100.00% |           0      0.00%    100.00% |           0      0.00%    100.00% |           0      0.00%    100.00% |           0      0.00%    100.00% |           0      0.00%    100.00% |           0      0.00%    100.00% |           0      0.00%    100.00% |           0      0.00%    100.00%
system.ruby.SimicsNetworkPortInterface_Controller.MessageSend::total      2047670                      
system.ruby.SimicsNetworkPortInterface_Controller.MessageRecv |      443377     21.65%     21.65% |     1023835     50.00%     71.65% |       36170      1.77%     73.42% |       37093      1.81%     75.23% |       36136      1.76%     77.00% |       36945      1.80%     78.80% |       36288      1.77%     80.57% |       36927      1.80%     82.38% |       35945      1.76%     84.13% |       36062      1.76%     85.89% |       35777      1.75%     87.64% |       36140      1.76%     89.40% |       36496      1.78%     91.19% |       36188      1.77%     92.95% |       35567      1.74%     94.69% |       35912      1.75%     96.44% |       36111      1.76%     98.21% |       36701      1.79%    100.00% |           0      0.00%    100.00% |           0      0.00%    100.00% |           0      0.00%    100.00% |           0      0.00%    100.00% |           0      0.00%    100.00% |           0      0.00%    100.00% |           0      0.00%    100.00% |           0      0.00%    100.00% |           0      0.00%    100.00% |           0      0.00%    100.00% |           0      0.00%    100.00% |           0      0.00%    100.00% |           0      0.00%    100.00% |           0      0.00%    100.00%
system.ruby.SimicsNetworkPortInterface_Controller.MessageRecv::total      2047670                      
system.ruby.SimicsNetworkPortInterface_Controller.A.MessageSend |      443377     21.65%     21.65% |     1023835     50.00%     71.65% |       36170      1.77%     73.42% |       37093      1.81%     75.23% |       36136      1.76%     77.00% |       36945      1.80%     78.80% |       36288      1.77%     80.57% |       36927      1.80%     82.38% |       35945      1.76%     84.13% |       36062      1.76%     85.89% |       35777      1.75%     87.64% |       36140      1.76%     89.40% |       36496      1.78%     91.19% |       36188      1.77%     92.95% |       35567      1.74%     94.69% |       35912      1.75%     96.44% |       36111      1.76%     98.21% |       36701      1.79%    100.00% |           0      0.00%    100.00% |           0      0.00%    100.00% |           0      0.00%    100.00% |           0      0.00%    100.00% |           0      0.00%    100.00% |           0      0.00%    100.00% |           0      0.00%    100.00% |           0      0.00%    100.00% |           0      0.00%    100.00% |           0      0.00%    100.00% |           0      0.00%    100.00% |           0      0.00%    100.00% |           0      0.00%    100.00% |           0      0.00%    100.00%
system.ruby.SimicsNetworkPortInterface_Controller.A.MessageSend::total      2047670                      
system.ruby.SimicsNetworkPortInterface_Controller.A.MessageRecv |      443377     21.65%     21.65% |     1023835     50.00%     71.65% |       36170      1.77%     73.42% |       37093      1.81%     75.23% |       36136      1.76%     77.00% |       36945      1.80%     78.80% |       36288      1.77%     80.57% |       36927      1.80%     82.38% |       35945      1.76%     84.13% |       36062      1.76%     85.89% |       35777      1.75%     87.64% |       36140      1.76%     89.40% |       36496      1.78%     91.19% |       36188      1.77%     92.95% |       35567      1.74%     94.69% |       35912      1.75%     96.44% |       36111      1.76%     98.21% |       36701      1.79%    100.00% |           0      0.00%    100.00% |           0      0.00%    100.00% |           0      0.00%    100.00% |           0      0.00%    100.00% |           0      0.00%    100.00% |           0      0.00%    100.00% |           0      0.00%    100.00% |           0      0.00%    100.00% |           0      0.00%    100.00% |           0      0.00%    100.00% |           0      0.00%    100.00% |           0      0.00%    100.00% |           0      0.00%    100.00% |           0      0.00%    100.00%
system.ruby.SimicsNetworkPortInterface_Controller.A.MessageRecv::total      2047670                      
system.switch_cpus.kern.inst.arm                    0                       # number of arm instructions executed
system.switch_cpus.kern.inst.quiesce                0                       # number of quiesce instructions executed

---------- End Simulation Statistics   ----------
