
---------- Begin Simulation Statistics ----------
sim_seconds                                  0.161736                       # Number of seconds simulated
sim_ticks                                161736402000                       # Number of ticks simulated
final_tick                               5337904480500                       # Number of ticks from beginning of simulation (restored from checkpoints and never reset)
sim_freq                                 1000000000000                       # Frequency of simulated ticks
host_inst_rate                                  53039                       # Simulator instruction rate (inst/s)
host_op_rate                                    98515                       # Simulator op (including micro ops) rate (op/s)
host_tick_rate                              115663992                       # Simulator tick rate (ticks/s)
host_mem_usage                                4015328                       # Number of bytes of host memory used
host_seconds                                  1398.33                       # Real time elapsed on the host
sim_insts                                    74165487                       # Number of instructions simulated
sim_ops                                     137756044                       # Number of ops (including micro ops) simulated
system.voltage_domain.voltage                       1                       # Voltage in Volts
system.clk_domain.clock                           500                       # Clock period in ticks
system.mem_ctrls0.bytes_read::ruby.dir_cntrl0     25273792                       # Number of bytes read from this memory
system.mem_ctrls0.bytes_read::total          25273792                       # Number of bytes read from this memory
system.mem_ctrls0.bytes_written::ruby.dir_cntrl0     21425024                       # Number of bytes written to this memory
system.mem_ctrls0.bytes_written::total       21425024                       # Number of bytes written to this memory
system.mem_ctrls0.num_reads::ruby.dir_cntrl0       394903                       # Number of read requests responded to by this memory
system.mem_ctrls0.num_reads::total             394903                       # Number of read requests responded to by this memory
system.mem_ctrls0.num_writes::ruby.dir_cntrl0       334766                       # Number of write requests responded to by this memory
system.mem_ctrls0.num_writes::total            334766                       # Number of write requests responded to by this memory
system.mem_ctrls0.bw_read::ruby.dir_cntrl0    156265329                       # Total read bandwidth from this memory (bytes/s)
system.mem_ctrls0.bw_read::total            156265329                       # Total read bandwidth from this memory (bytes/s)
system.mem_ctrls0.bw_write::ruby.dir_cntrl0    132468781                       # Write bandwidth from this memory (bytes/s)
system.mem_ctrls0.bw_write::total           132468781                       # Write bandwidth from this memory (bytes/s)
system.mem_ctrls0.bw_total::ruby.dir_cntrl0    288734109                       # Total bandwidth to/from this memory (bytes/s)
system.mem_ctrls0.bw_total::total           288734109                       # Total bandwidth to/from this memory (bytes/s)
system.mem_ctrls0.readReqs                     394904                       # Number of read requests accepted
system.mem_ctrls0.writeReqs                    334766                       # Number of write requests accepted
system.mem_ctrls0.readBursts                   394904                       # Number of DRAM read bursts, including those serviced by the write queue
system.mem_ctrls0.writeBursts                  334766                       # Number of DRAM write bursts, including those merged in the write queue
system.mem_ctrls0.bytesReadDRAM              25272128                       # Total number of bytes read from DRAM
system.mem_ctrls0.bytesReadWrQ                   1728                       # Total number of bytes read from write queue
system.mem_ctrls0.bytesWritten               21424768                       # Total number of bytes written to DRAM
system.mem_ctrls0.bytesReadSys               25273856                       # Total read bytes from the system interface side
system.mem_ctrls0.bytesWrittenSys            21425024                       # Total written bytes from the system interface side
system.mem_ctrls0.servicedByWrQ                    27                       # Number of DRAM read bursts serviced by the write queue
system.mem_ctrls0.mergedWrBursts                    0                       # Number of DRAM write bursts merged with an existing one
system.mem_ctrls0.neitherReadNorWriteReqs            0                       # Number of requests that are neither read nor write
system.mem_ctrls0.perBankRdBursts::0            24366                       # Per bank write bursts
system.mem_ctrls0.perBankRdBursts::1            25093                       # Per bank write bursts
system.mem_ctrls0.perBankRdBursts::2            24652                       # Per bank write bursts
system.mem_ctrls0.perBankRdBursts::3            24947                       # Per bank write bursts
system.mem_ctrls0.perBankRdBursts::4            24585                       # Per bank write bursts
system.mem_ctrls0.perBankRdBursts::5            24933                       # Per bank write bursts
system.mem_ctrls0.perBankRdBursts::6            24975                       # Per bank write bursts
system.mem_ctrls0.perBankRdBursts::7            24757                       # Per bank write bursts
system.mem_ctrls0.perBankRdBursts::8            24666                       # Per bank write bursts
system.mem_ctrls0.perBankRdBursts::9            24786                       # Per bank write bursts
system.mem_ctrls0.perBankRdBursts::10           24585                       # Per bank write bursts
system.mem_ctrls0.perBankRdBursts::11           25071                       # Per bank write bursts
system.mem_ctrls0.perBankRdBursts::12           24325                       # Per bank write bursts
system.mem_ctrls0.perBankRdBursts::13           24251                       # Per bank write bursts
system.mem_ctrls0.perBankRdBursts::14           24414                       # Per bank write bursts
system.mem_ctrls0.perBankRdBursts::15           24471                       # Per bank write bursts
system.mem_ctrls0.perBankWrBursts::0            20959                       # Per bank write bursts
system.mem_ctrls0.perBankWrBursts::1            20837                       # Per bank write bursts
system.mem_ctrls0.perBankWrBursts::2            20833                       # Per bank write bursts
system.mem_ctrls0.perBankWrBursts::3            21135                       # Per bank write bursts
system.mem_ctrls0.perBankWrBursts::4            20736                       # Per bank write bursts
system.mem_ctrls0.perBankWrBursts::5            21093                       # Per bank write bursts
system.mem_ctrls0.perBankWrBursts::6            21078                       # Per bank write bursts
system.mem_ctrls0.perBankWrBursts::7            21035                       # Per bank write bursts
system.mem_ctrls0.perBankWrBursts::8            21107                       # Per bank write bursts
system.mem_ctrls0.perBankWrBursts::9            20928                       # Per bank write bursts
system.mem_ctrls0.perBankWrBursts::10           20852                       # Per bank write bursts
system.mem_ctrls0.perBankWrBursts::11           20880                       # Per bank write bursts
system.mem_ctrls0.perBankWrBursts::12           20666                       # Per bank write bursts
system.mem_ctrls0.perBankWrBursts::13           20890                       # Per bank write bursts
system.mem_ctrls0.perBankWrBursts::14           20923                       # Per bank write bursts
system.mem_ctrls0.perBankWrBursts::15           20810                       # Per bank write bursts
system.mem_ctrls0.numRdRetry                        0                       # Number of times read queue was full causing retry
system.mem_ctrls0.numWrRetry                      186                       # Number of times write queue was full causing retry
system.mem_ctrls0.totGap                 161736141000                       # Total gap between requests
system.mem_ctrls0.readPktSize::0                    0                       # Read request sizes (log2)
system.mem_ctrls0.readPktSize::1                    0                       # Read request sizes (log2)
system.mem_ctrls0.readPktSize::2                    0                       # Read request sizes (log2)
system.mem_ctrls0.readPktSize::3                    0                       # Read request sizes (log2)
system.mem_ctrls0.readPktSize::4                    0                       # Read request sizes (log2)
system.mem_ctrls0.readPktSize::5                    0                       # Read request sizes (log2)
system.mem_ctrls0.readPktSize::6               394904                       # Read request sizes (log2)
system.mem_ctrls0.writePktSize::0                   0                       # Write request sizes (log2)
system.mem_ctrls0.writePktSize::1                   0                       # Write request sizes (log2)
system.mem_ctrls0.writePktSize::2                   0                       # Write request sizes (log2)
system.mem_ctrls0.writePktSize::3                   0                       # Write request sizes (log2)
system.mem_ctrls0.writePktSize::4                   0                       # Write request sizes (log2)
system.mem_ctrls0.writePktSize::5                   0                       # Write request sizes (log2)
system.mem_ctrls0.writePktSize::6              334766                       # Write request sizes (log2)
system.mem_ctrls0.rdQLenPdf::0                 336325                       # What read queue length does an incoming req see
system.mem_ctrls0.rdQLenPdf::1                  31953                       # What read queue length does an incoming req see
system.mem_ctrls0.rdQLenPdf::2                  13538                       # What read queue length does an incoming req see
system.mem_ctrls0.rdQLenPdf::3                   6433                       # What read queue length does an incoming req see
system.mem_ctrls0.rdQLenPdf::4                   3688                       # What read queue length does an incoming req see
system.mem_ctrls0.rdQLenPdf::5                   1582                       # What read queue length does an incoming req see
system.mem_ctrls0.rdQLenPdf::6                    827                       # What read queue length does an incoming req see
system.mem_ctrls0.rdQLenPdf::7                    390                       # What read queue length does an incoming req see
system.mem_ctrls0.rdQLenPdf::8                    100                       # What read queue length does an incoming req see
system.mem_ctrls0.rdQLenPdf::9                     32                       # What read queue length does an incoming req see
system.mem_ctrls0.rdQLenPdf::10                     4                       # What read queue length does an incoming req see
system.mem_ctrls0.rdQLenPdf::11                     2                       # What read queue length does an incoming req see
system.mem_ctrls0.rdQLenPdf::12                     1                       # What read queue length does an incoming req see
system.mem_ctrls0.rdQLenPdf::13                     1                       # What read queue length does an incoming req see
system.mem_ctrls0.rdQLenPdf::14                     1                       # What read queue length does an incoming req see
system.mem_ctrls0.rdQLenPdf::15                     0                       # What read queue length does an incoming req see
system.mem_ctrls0.rdQLenPdf::16                     0                       # What read queue length does an incoming req see
system.mem_ctrls0.rdQLenPdf::17                     0                       # What read queue length does an incoming req see
system.mem_ctrls0.rdQLenPdf::18                     0                       # What read queue length does an incoming req see
system.mem_ctrls0.rdQLenPdf::19                     0                       # What read queue length does an incoming req see
system.mem_ctrls0.rdQLenPdf::20                     0                       # What read queue length does an incoming req see
system.mem_ctrls0.rdQLenPdf::21                     0                       # What read queue length does an incoming req see
system.mem_ctrls0.rdQLenPdf::22                     0                       # What read queue length does an incoming req see
system.mem_ctrls0.rdQLenPdf::23                     0                       # What read queue length does an incoming req see
system.mem_ctrls0.rdQLenPdf::24                     0                       # What read queue length does an incoming req see
system.mem_ctrls0.rdQLenPdf::25                     0                       # What read queue length does an incoming req see
system.mem_ctrls0.rdQLenPdf::26                     0                       # What read queue length does an incoming req see
system.mem_ctrls0.rdQLenPdf::27                     0                       # What read queue length does an incoming req see
system.mem_ctrls0.rdQLenPdf::28                     0                       # What read queue length does an incoming req see
system.mem_ctrls0.rdQLenPdf::29                     0                       # What read queue length does an incoming req see
system.mem_ctrls0.rdQLenPdf::30                     0                       # What read queue length does an incoming req see
system.mem_ctrls0.rdQLenPdf::31                     0                       # What read queue length does an incoming req see
system.mem_ctrls0.wrQLenPdf::0                  64920                       # What write queue length does an incoming req see
system.mem_ctrls0.wrQLenPdf::1                  66905                       # What write queue length does an incoming req see
system.mem_ctrls0.wrQLenPdf::2                  67149                       # What write queue length does an incoming req see
system.mem_ctrls0.wrQLenPdf::3                  66531                       # What write queue length does an incoming req see
system.mem_ctrls0.wrQLenPdf::4                  66262                       # What write queue length does an incoming req see
system.mem_ctrls0.wrQLenPdf::5                   1530                       # What write queue length does an incoming req see
system.mem_ctrls0.wrQLenPdf::6                    855                       # What write queue length does an incoming req see
system.mem_ctrls0.wrQLenPdf::7                    614                       # What write queue length does an incoming req see
system.mem_ctrls0.bytesPerActivate::samples       188484                       # Bytes accessed per row activation
system.mem_ctrls0.bytesPerActivate::mean   247.749581                       # Bytes accessed per row activation
system.mem_ctrls0.bytesPerActivate::gmean   181.209125                       # Bytes accessed per row activation
system.mem_ctrls0.bytesPerActivate::stdev   211.025099                       # Bytes accessed per row activation
system.mem_ctrls0.bytesPerActivate::0-127        56210     29.82%     29.82% # Bytes accessed per row activation
system.mem_ctrls0.bytesPerActivate::128-255        37787     20.05%     49.87% # Bytes accessed per row activation
system.mem_ctrls0.bytesPerActivate::256-383        73887     39.20%     89.07% # Bytes accessed per row activation
system.mem_ctrls0.bytesPerActivate::384-511         5684      3.02%     92.09% # Bytes accessed per row activation
system.mem_ctrls0.bytesPerActivate::512-639         3004      1.59%     93.68% # Bytes accessed per row activation
system.mem_ctrls0.bytesPerActivate::640-767         2399      1.27%     94.95% # Bytes accessed per row activation
system.mem_ctrls0.bytesPerActivate::768-895         1590      0.84%     95.80% # Bytes accessed per row activation
system.mem_ctrls0.bytesPerActivate::896-1023         1860      0.99%     96.78% # Bytes accessed per row activation
system.mem_ctrls0.bytesPerActivate::1024-1151         6063      3.22%    100.00% # Bytes accessed per row activation
system.mem_ctrls0.bytesPerActivate::total       188484                       # Bytes accessed per row activation
system.mem_ctrls0.rdPerTurnAround::samples        64919                       # Reads before turning the bus around for writes
system.mem_ctrls0.rdPerTurnAround::mean      6.082410                       # Reads before turning the bus around for writes
system.mem_ctrls0.rdPerTurnAround::stdev    16.307927                       # Reads before turning the bus around for writes
system.mem_ctrls0.rdPerTurnAround::0-127        64911     99.99%     99.99% # Reads before turning the bus around for writes
system.mem_ctrls0.rdPerTurnAround::128-255            7      0.01%    100.00% # Reads before turning the bus around for writes
system.mem_ctrls0.rdPerTurnAround::3968-4095            1      0.00%    100.00% # Reads before turning the bus around for writes
system.mem_ctrls0.rdPerTurnAround::total        64919                       # Reads before turning the bus around for writes
system.mem_ctrls0.wrPerTurnAround::samples        64919                       # Writes before turning the bus around for reads
system.mem_ctrls0.wrPerTurnAround::mean      5.156611                       # Writes before turning the bus around for reads
system.mem_ctrls0.wrPerTurnAround::gmean     5.126473                       # Writes before turning the bus around for reads
system.mem_ctrls0.wrPerTurnAround::stdev     0.668378                       # Writes before turning the bus around for reads
system.mem_ctrls0.wrPerTurnAround::4-7          63578     97.93%     97.93% # Writes before turning the bus around for reads
system.mem_ctrls0.wrPerTurnAround::8-11          1272      1.96%     99.89% # Writes before turning the bus around for reads
system.mem_ctrls0.wrPerTurnAround::12-15           68      0.10%    100.00% # Writes before turning the bus around for reads
system.mem_ctrls0.wrPerTurnAround::16-19            1      0.00%    100.00% # Writes before turning the bus around for reads
system.mem_ctrls0.wrPerTurnAround::total        64919                       # Writes before turning the bus around for reads
system.mem_ctrls0.totQLat                  5965328128                       # Total ticks spent queuing
system.mem_ctrls0.totMemAccLat            13369271878                       # Total ticks spent from burst creation until serviced by the DRAM
system.mem_ctrls0.totBusLat                1974385000                       # Total ticks spent in databus transfers
system.mem_ctrls0.avgQLat                    15106.80                       # Average queueing delay per DRAM burst
system.mem_ctrls0.avgBusLat                   5000.00                       # Average bus latency per DRAM burst
system.mem_ctrls0.avgMemAccLat               33856.80                       # Average memory access latency per DRAM burst
system.mem_ctrls0.avgRdBW                      156.26                       # Average DRAM read bandwidth in MiByte/s
system.mem_ctrls0.avgWrBW                      132.47                       # Average achieved write bandwidth in MiByte/s
system.mem_ctrls0.avgRdBWSys                   156.27                       # Average system read bandwidth in MiByte/s
system.mem_ctrls0.avgWrBWSys                   132.47                       # Average system write bandwidth in MiByte/s
system.mem_ctrls0.peakBW                     12800.00                       # Theoretical peak bandwidth in MiByte/s
system.mem_ctrls0.busUtil                        2.26                       # Data bus utilization in percentage
system.mem_ctrls0.busUtilRead                    1.22                       # Data bus utilization in percentage for reads
system.mem_ctrls0.busUtilWrite                   1.03                       # Data bus utilization in percentage for writes
system.mem_ctrls0.avgRdQLen                      1.04                       # Average read queue length when enqueuing
system.mem_ctrls0.avgWrQLen                      2.96                       # Average write queue length when enqueuing
system.mem_ctrls0.readRowHits                  302792                       # Number of row buffer hits during reads
system.mem_ctrls0.writeRowHits                 238362                       # Number of row buffer hits during writes
system.mem_ctrls0.readRowHitRate                76.68                       # Row buffer hit rate for reads
system.mem_ctrls0.writeRowHitRate               71.20                       # Row buffer hit rate for writes
system.mem_ctrls0.avgGap                    221656.56                       # Average gap between requests
system.mem_ctrls0.pageHitRate                   74.17                       # Row buffer hit rate, read and write combined
system.mem_ctrls0.memoryStateTime::IDLE   26607692250                       # Time in different power states
system.mem_ctrls0.memoryStateTime::REF     5400720000                       # Time in different power states
system.mem_ctrls0.memoryStateTime::PRE_PDN            0                       # Time in different power states
system.mem_ctrls0.memoryStateTime::ACT   129727975750                       # Time in different power states
system.mem_ctrls0.memoryStateTime::ACT_PDN            0                       # Time in different power states
system.mem_ctrls0.actEnergy::0              716831640                       # Energy for activate commands per rank (pJ)
system.mem_ctrls0.actEnergy::1              708107400                       # Energy for activate commands per rank (pJ)
system.mem_ctrls0.preEnergy::0              391128375                       # Energy for precharge commands per rank (pJ)
system.mem_ctrls0.preEnergy::1              386368125                       # Energy for precharge commands per rank (pJ)
system.mem_ctrls0.readEnergy::0            1546802400                       # Energy for read commands per rank (pJ)
system.mem_ctrls0.readEnergy::1            1533230400                       # Energy for read commands per rank (pJ)
system.mem_ctrls0.writeEnergy::0           1086734880                       # Energy for write commands per rank (pJ)
system.mem_ctrls0.writeEnergy::1           1082522880                       # Energy for write commands per rank (pJ)
system.mem_ctrls0.refreshEnergy::0        10563808320                       # Energy for refresh commands per rank (pJ)
system.mem_ctrls0.refreshEnergy::1        10563808320                       # Energy for refresh commands per rank (pJ)
system.mem_ctrls0.actBackEnergy::0        66243762675                       # Energy for active background per rank (pJ)
system.mem_ctrls0.actBackEnergy::1        65976540120                       # Energy for active background per rank (pJ)
system.mem_ctrls0.preBackEnergy::0        38933183250                       # Energy for precharge background per rank (pJ)
system.mem_ctrls0.preBackEnergy::1        39167589000                       # Energy for precharge background per rank (pJ)
system.mem_ctrls0.totalEnergy::0         119482251540                       # Total energy per rank (pJ)
system.mem_ctrls0.totalEnergy::1         119418166245                       # Total energy per rank (pJ)
system.mem_ctrls0.averagePower::0          738.747530                       # Core power per rank (mW)
system.mem_ctrls0.averagePower::1          738.351297                       # Core power per rank (mW)
system.mem_ctrls1.bytes_read::ruby.dir_cntrl1     24515392                       # Number of bytes read from this memory
system.mem_ctrls1.bytes_read::total          24515392                       # Number of bytes read from this memory
system.mem_ctrls1.bytes_written::ruby.dir_cntrl1     20687168                       # Number of bytes written to this memory
system.mem_ctrls1.bytes_written::total       20687168                       # Number of bytes written to this memory
system.mem_ctrls1.num_reads::ruby.dir_cntrl1       383053                       # Number of read requests responded to by this memory
system.mem_ctrls1.num_reads::total             383053                       # Number of read requests responded to by this memory
system.mem_ctrls1.num_writes::ruby.dir_cntrl1       323237                       # Number of write requests responded to by this memory
system.mem_ctrls1.num_writes::total            323237                       # Number of write requests responded to by this memory
system.mem_ctrls1.bw_read::ruby.dir_cntrl1    151576217                       # Total read bandwidth from this memory (bytes/s)
system.mem_ctrls1.bw_read::total            151576217                       # Total read bandwidth from this memory (bytes/s)
system.mem_ctrls1.bw_write::ruby.dir_cntrl1    127906691                       # Write bandwidth from this memory (bytes/s)
system.mem_ctrls1.bw_write::total           127906691                       # Write bandwidth from this memory (bytes/s)
system.mem_ctrls1.bw_total::ruby.dir_cntrl1    279482908                       # Total bandwidth to/from this memory (bytes/s)
system.mem_ctrls1.bw_total::total           279482908                       # Total bandwidth to/from this memory (bytes/s)
system.mem_ctrls1.readReqs                     383053                       # Number of read requests accepted
system.mem_ctrls1.writeReqs                    323237                       # Number of write requests accepted
system.mem_ctrls1.readBursts                   383053                       # Number of DRAM read bursts, including those serviced by the write queue
system.mem_ctrls1.writeBursts                  323237                       # Number of DRAM write bursts, including those merged in the write queue
system.mem_ctrls1.bytesReadDRAM              24513664                       # Total number of bytes read from DRAM
system.mem_ctrls1.bytesReadWrQ                   1728                       # Total number of bytes read from write queue
system.mem_ctrls1.bytesWritten               20687040                       # Total number of bytes written to DRAM
system.mem_ctrls1.bytesReadSys               24515392                       # Total read bytes from the system interface side
system.mem_ctrls1.bytesWrittenSys            20687168                       # Total written bytes from the system interface side
system.mem_ctrls1.servicedByWrQ                    27                       # Number of DRAM read bursts serviced by the write queue
system.mem_ctrls1.mergedWrBursts                    0                       # Number of DRAM write bursts merged with an existing one
system.mem_ctrls1.neitherReadNorWriteReqs            0                       # Number of requests that are neither read nor write
system.mem_ctrls1.perBankRdBursts::0            23652                       # Per bank write bursts
system.mem_ctrls1.perBankRdBursts::1            24342                       # Per bank write bursts
system.mem_ctrls1.perBankRdBursts::2            23910                       # Per bank write bursts
system.mem_ctrls1.perBankRdBursts::3            24204                       # Per bank write bursts
system.mem_ctrls1.perBankRdBursts::4            23878                       # Per bank write bursts
system.mem_ctrls1.perBankRdBursts::5            24191                       # Per bank write bursts
system.mem_ctrls1.perBankRdBursts::6            24237                       # Per bank write bursts
system.mem_ctrls1.perBankRdBursts::7            24048                       # Per bank write bursts
system.mem_ctrls1.perBankRdBursts::8            23931                       # Per bank write bursts
system.mem_ctrls1.perBankRdBursts::9            24044                       # Per bank write bursts
system.mem_ctrls1.perBankRdBursts::10           23815                       # Per bank write bursts
system.mem_ctrls1.perBankRdBursts::11           24335                       # Per bank write bursts
system.mem_ctrls1.perBankRdBursts::12           23594                       # Per bank write bursts
system.mem_ctrls1.perBankRdBursts::13           23494                       # Per bank write bursts
system.mem_ctrls1.perBankRdBursts::14           23598                       # Per bank write bursts
system.mem_ctrls1.perBankRdBursts::15           23753                       # Per bank write bursts
system.mem_ctrls1.perBankWrBursts::0            20241                       # Per bank write bursts
system.mem_ctrls1.perBankWrBursts::1            20130                       # Per bank write bursts
system.mem_ctrls1.perBankWrBursts::2            20133                       # Per bank write bursts
system.mem_ctrls1.perBankWrBursts::3            20426                       # Per bank write bursts
system.mem_ctrls1.perBankWrBursts::4            20026                       # Per bank write bursts
system.mem_ctrls1.perBankWrBursts::5            20386                       # Per bank write bursts
system.mem_ctrls1.perBankWrBursts::6            20346                       # Per bank write bursts
system.mem_ctrls1.perBankWrBursts::7            20304                       # Per bank write bursts
system.mem_ctrls1.perBankWrBursts::8            20382                       # Per bank write bursts
system.mem_ctrls1.perBankWrBursts::9            20201                       # Per bank write bursts
system.mem_ctrls1.perBankWrBursts::10           20136                       # Per bank write bursts
system.mem_ctrls1.perBankWrBursts::11           20163                       # Per bank write bursts
system.mem_ctrls1.perBankWrBursts::12           19950                       # Per bank write bursts
system.mem_ctrls1.perBankWrBursts::13           20166                       # Per bank write bursts
system.mem_ctrls1.perBankWrBursts::14           20150                       # Per bank write bursts
system.mem_ctrls1.perBankWrBursts::15           20095                       # Per bank write bursts
system.mem_ctrls1.numRdRetry                        0                       # Number of times read queue was full causing retry
system.mem_ctrls1.numWrRetry                      195                       # Number of times write queue was full causing retry
system.mem_ctrls1.totGap                 161735472500                       # Total gap between requests
system.mem_ctrls1.readPktSize::0                    0                       # Read request sizes (log2)
system.mem_ctrls1.readPktSize::1                    0                       # Read request sizes (log2)
system.mem_ctrls1.readPktSize::2                    0                       # Read request sizes (log2)
system.mem_ctrls1.readPktSize::3                    0                       # Read request sizes (log2)
system.mem_ctrls1.readPktSize::4                    0                       # Read request sizes (log2)
system.mem_ctrls1.readPktSize::5                    0                       # Read request sizes (log2)
system.mem_ctrls1.readPktSize::6               383053                       # Read request sizes (log2)
system.mem_ctrls1.writePktSize::0                   0                       # Write request sizes (log2)
system.mem_ctrls1.writePktSize::1                   0                       # Write request sizes (log2)
system.mem_ctrls1.writePktSize::2                   0                       # Write request sizes (log2)
system.mem_ctrls1.writePktSize::3                   0                       # Write request sizes (log2)
system.mem_ctrls1.writePktSize::4                   0                       # Write request sizes (log2)
system.mem_ctrls1.writePktSize::5                   0                       # Write request sizes (log2)
system.mem_ctrls1.writePktSize::6              323237                       # Write request sizes (log2)
system.mem_ctrls1.rdQLenPdf::0                 333374                       # What read queue length does an incoming req see
system.mem_ctrls1.rdQLenPdf::1                  27350                       # What read queue length does an incoming req see
system.mem_ctrls1.rdQLenPdf::2                  10148                       # What read queue length does an incoming req see
system.mem_ctrls1.rdQLenPdf::3                   5848                       # What read queue length does an incoming req see
system.mem_ctrls1.rdQLenPdf::4                   3577                       # What read queue length does an incoming req see
system.mem_ctrls1.rdQLenPdf::5                   1620                       # What read queue length does an incoming req see
system.mem_ctrls1.rdQLenPdf::6                    703                       # What read queue length does an incoming req see
system.mem_ctrls1.rdQLenPdf::7                    302                       # What read queue length does an incoming req see
system.mem_ctrls1.rdQLenPdf::8                     79                       # What read queue length does an incoming req see
system.mem_ctrls1.rdQLenPdf::9                     21                       # What read queue length does an incoming req see
system.mem_ctrls1.rdQLenPdf::10                     4                       # What read queue length does an incoming req see
system.mem_ctrls1.rdQLenPdf::11                     0                       # What read queue length does an incoming req see
system.mem_ctrls1.rdQLenPdf::12                     0                       # What read queue length does an incoming req see
system.mem_ctrls1.rdQLenPdf::13                     0                       # What read queue length does an incoming req see
system.mem_ctrls1.rdQLenPdf::14                     0                       # What read queue length does an incoming req see
system.mem_ctrls1.rdQLenPdf::15                     0                       # What read queue length does an incoming req see
system.mem_ctrls1.rdQLenPdf::16                     0                       # What read queue length does an incoming req see
system.mem_ctrls1.rdQLenPdf::17                     0                       # What read queue length does an incoming req see
system.mem_ctrls1.rdQLenPdf::18                     0                       # What read queue length does an incoming req see
system.mem_ctrls1.rdQLenPdf::19                     0                       # What read queue length does an incoming req see
system.mem_ctrls1.rdQLenPdf::20                     0                       # What read queue length does an incoming req see
system.mem_ctrls1.rdQLenPdf::21                     0                       # What read queue length does an incoming req see
system.mem_ctrls1.rdQLenPdf::22                     0                       # What read queue length does an incoming req see
system.mem_ctrls1.rdQLenPdf::23                     0                       # What read queue length does an incoming req see
system.mem_ctrls1.rdQLenPdf::24                     0                       # What read queue length does an incoming req see
system.mem_ctrls1.rdQLenPdf::25                     0                       # What read queue length does an incoming req see
system.mem_ctrls1.rdQLenPdf::26                     0                       # What read queue length does an incoming req see
system.mem_ctrls1.rdQLenPdf::27                     0                       # What read queue length does an incoming req see
system.mem_ctrls1.rdQLenPdf::28                     0                       # What read queue length does an incoming req see
system.mem_ctrls1.rdQLenPdf::29                     0                       # What read queue length does an incoming req see
system.mem_ctrls1.rdQLenPdf::30                     0                       # What read queue length does an incoming req see
system.mem_ctrls1.rdQLenPdf::31                     0                       # What read queue length does an incoming req see
system.mem_ctrls1.wrQLenPdf::0                  62983                       # What write queue length does an incoming req see
system.mem_ctrls1.wrQLenPdf::1                  64552                       # What write queue length does an incoming req see
system.mem_ctrls1.wrQLenPdf::2                  64419                       # What write queue length does an incoming req see
system.mem_ctrls1.wrQLenPdf::3                  64443                       # What write queue length does an incoming req see
system.mem_ctrls1.wrQLenPdf::4                  64286                       # What write queue length does an incoming req see
system.mem_ctrls1.wrQLenPdf::5                   1267                       # What write queue length does an incoming req see
system.mem_ctrls1.wrQLenPdf::6                    702                       # What write queue length does an incoming req see
system.mem_ctrls1.wrQLenPdf::7                    585                       # What write queue length does an incoming req see
system.mem_ctrls1.bytesPerActivate::samples       162509                       # Bytes accessed per row activation
system.mem_ctrls1.bytesPerActivate::mean   278.141986                       # Bytes accessed per row activation
system.mem_ctrls1.bytesPerActivate::gmean   212.679004                       # Bytes accessed per row activation
system.mem_ctrls1.bytesPerActivate::stdev   216.416059                       # Bytes accessed per row activation
system.mem_ctrls1.bytesPerActivate::0-127        32573     20.04%     20.04% # Bytes accessed per row activation
system.mem_ctrls1.bytesPerActivate::128-255        34878     21.46%     41.51% # Bytes accessed per row activation
system.mem_ctrls1.bytesPerActivate::256-383        74065     45.58%     87.08% # Bytes accessed per row activation
system.mem_ctrls1.bytesPerActivate::384-511         5693      3.50%     90.59% # Bytes accessed per row activation
system.mem_ctrls1.bytesPerActivate::512-639         3048      1.88%     92.46% # Bytes accessed per row activation
system.mem_ctrls1.bytesPerActivate::640-767         2256      1.39%     93.85% # Bytes accessed per row activation
system.mem_ctrls1.bytesPerActivate::768-895         1719      1.06%     94.91% # Bytes accessed per row activation
system.mem_ctrls1.bytesPerActivate::896-1023         1600      0.98%     95.89% # Bytes accessed per row activation
system.mem_ctrls1.bytesPerActivate::1024-1151         6677      4.11%    100.00% # Bytes accessed per row activation
system.mem_ctrls1.bytesPerActivate::total       162509                       # Bytes accessed per row activation
system.mem_ctrls1.rdPerTurnAround::samples        62982                       # Reads before turning the bus around for writes
system.mem_ctrls1.rdPerTurnAround::mean      6.081325                       # Reads before turning the bus around for writes
system.mem_ctrls1.rdPerTurnAround::stdev    13.268342                       # Reads before turning the bus around for writes
system.mem_ctrls1.rdPerTurnAround::0-127        62976     99.99%     99.99% # Reads before turning the bus around for writes
system.mem_ctrls1.rdPerTurnAround::128-255            4      0.01%    100.00% # Reads before turning the bus around for writes
system.mem_ctrls1.rdPerTurnAround::1152-1279            1      0.00%    100.00% # Reads before turning the bus around for writes
system.mem_ctrls1.rdPerTurnAround::2816-2943            1      0.00%    100.00% # Reads before turning the bus around for writes
system.mem_ctrls1.rdPerTurnAround::total        62982                       # Reads before turning the bus around for writes
system.mem_ctrls1.wrPerTurnAround::samples        62982                       # Writes before turning the bus around for reads
system.mem_ctrls1.wrPerTurnAround::mean      5.132181                       # Writes before turning the bus around for reads
system.mem_ctrls1.wrPerTurnAround::gmean     5.104978                       # Writes before turning the bus around for reads
system.mem_ctrls1.wrPerTurnAround::stdev     0.638330                       # Writes before turning the bus around for reads
system.mem_ctrls1.wrPerTurnAround::4-5          59143     93.90%     93.90% # Writes before turning the bus around for reads
system.mem_ctrls1.wrPerTurnAround::6-7           2567      4.08%     97.98% # Writes before turning the bus around for reads
system.mem_ctrls1.wrPerTurnAround::8-9            910      1.44%     99.43% # Writes before turning the bus around for reads
system.mem_ctrls1.wrPerTurnAround::10-11          308      0.49%     99.91% # Writes before turning the bus around for reads
system.mem_ctrls1.wrPerTurnAround::12-13           47      0.07%     99.99% # Writes before turning the bus around for reads
system.mem_ctrls1.wrPerTurnAround::14-15            7      0.01%    100.00% # Writes before turning the bus around for reads
system.mem_ctrls1.wrPerTurnAround::total        62982                       # Writes before turning the bus around for reads
system.mem_ctrls1.totQLat                  5322317354                       # Total ticks spent queuing
system.mem_ctrls1.totMemAccLat            12504054854                       # Total ticks spent from burst creation until serviced by the DRAM
system.mem_ctrls1.totBusLat                1915130000                       # Total ticks spent in databus transfers
system.mem_ctrls1.avgQLat                    13895.45                       # Average queueing delay per DRAM burst
system.mem_ctrls1.avgBusLat                   5000.00                       # Average bus latency per DRAM burst
system.mem_ctrls1.avgMemAccLat               32645.45                       # Average memory access latency per DRAM burst
system.mem_ctrls1.avgRdBW                      151.57                       # Average DRAM read bandwidth in MiByte/s
system.mem_ctrls1.avgWrBW                      127.91                       # Average achieved write bandwidth in MiByte/s
system.mem_ctrls1.avgRdBWSys                   151.58                       # Average system read bandwidth in MiByte/s
system.mem_ctrls1.avgWrBWSys                   127.91                       # Average system write bandwidth in MiByte/s
system.mem_ctrls1.peakBW                     12800.00                       # Theoretical peak bandwidth in MiByte/s
system.mem_ctrls1.busUtil                        2.18                       # Data bus utilization in percentage
system.mem_ctrls1.busUtilRead                    1.18                       # Data bus utilization in percentage for reads
system.mem_ctrls1.busUtilWrite                   1.00                       # Data bus utilization in percentage for writes
system.mem_ctrls1.avgRdQLen                      1.03                       # Average read queue length when enqueuing
system.mem_ctrls1.avgWrQLen                      2.97                       # Average write queue length when enqueuing
system.mem_ctrls1.readRowHits                  300906                       # Number of row buffer hits during reads
system.mem_ctrls1.writeRowHits                 242845                       # Number of row buffer hits during writes
system.mem_ctrls1.readRowHitRate                78.56                       # Row buffer hit rate for reads
system.mem_ctrls1.writeRowHitRate               75.13                       # Row buffer hit rate for writes
system.mem_ctrls1.avgGap                    228993.01                       # Average gap between requests
system.mem_ctrls1.pageHitRate                   76.99                       # Row buffer hit rate, read and write combined
system.mem_ctrls1.memoryStateTime::IDLE   27093415250                       # Time in different power states
system.mem_ctrls1.memoryStateTime::REF     5400720000                       # Time in different power states
system.mem_ctrls1.memoryStateTime::PRE_PDN            0                       # Time in different power states
system.mem_ctrls1.memoryStateTime::ACT   129242123500                       # Time in different power states
system.mem_ctrls1.memoryStateTime::ACT_PDN            0                       # Time in different power states
system.mem_ctrls1.actEnergy::0              620078760                       # Energy for activate commands per rank (pJ)
system.mem_ctrls1.actEnergy::1              608489280                       # Energy for activate commands per rank (pJ)
system.mem_ctrls1.preEnergy::0              338336625                       # Energy for precharge commands per rank (pJ)
system.mem_ctrls1.preEnergy::1              332013000                       # Energy for precharge commands per rank (pJ)
system.mem_ctrls1.readEnergy::0            1501203600                       # Energy for read commands per rank (pJ)
system.mem_ctrls1.readEnergy::1            1486383600                       # Energy for read commands per rank (pJ)
system.mem_ctrls1.writeEnergy::0           1049708160                       # Energy for write commands per rank (pJ)
system.mem_ctrls1.writeEnergy::1           1044854640                       # Energy for write commands per rank (pJ)
system.mem_ctrls1.refreshEnergy::0        10563808320                       # Energy for refresh commands per rank (pJ)
system.mem_ctrls1.refreshEnergy::1        10563808320                       # Energy for refresh commands per rank (pJ)
system.mem_ctrls1.actBackEnergy::0        65138322915                       # Energy for active background per rank (pJ)
system.mem_ctrls1.actBackEnergy::1        64660925115                       # Energy for active background per rank (pJ)
system.mem_ctrls1.preBackEnergy::0        39902867250                       # Energy for precharge background per rank (pJ)
system.mem_ctrls1.preBackEnergy::1        40321637250                       # Energy for precharge background per rank (pJ)
system.mem_ctrls1.totalEnergy::0         119114325630                       # Total energy per rank (pJ)
system.mem_ctrls1.totalEnergy::1         119018111205                       # Total energy per rank (pJ)
system.mem_ctrls1.averagePower::0          736.472679                       # Core power per rank (mW)
system.mem_ctrls1.averagePower::1          735.877794                       # Core power per rank (mW)
system.mem_ctrls2.bytes_read::ruby.dir_cntrl2     24515904                       # Number of bytes read from this memory
system.mem_ctrls2.bytes_read::total          24515904                       # Number of bytes read from this memory
system.mem_ctrls2.bytes_written::ruby.dir_cntrl2     20689280                       # Number of bytes written to this memory
system.mem_ctrls2.bytes_written::total       20689280                       # Number of bytes written to this memory
system.mem_ctrls2.num_reads::ruby.dir_cntrl2       383061                       # Number of read requests responded to by this memory
system.mem_ctrls2.num_reads::total             383061                       # Number of read requests responded to by this memory
system.mem_ctrls2.num_writes::ruby.dir_cntrl2       323270                       # Number of write requests responded to by this memory
system.mem_ctrls2.num_writes::total            323270                       # Number of write requests responded to by this memory
system.mem_ctrls2.bw_read::ruby.dir_cntrl2    151579383                       # Total read bandwidth from this memory (bytes/s)
system.mem_ctrls2.bw_read::total            151579383                       # Total read bandwidth from this memory (bytes/s)
system.mem_ctrls2.bw_write::ruby.dir_cntrl2    127919749                       # Write bandwidth from this memory (bytes/s)
system.mem_ctrls2.bw_write::total           127919749                       # Write bandwidth from this memory (bytes/s)
system.mem_ctrls2.bw_total::ruby.dir_cntrl2    279499132                       # Total bandwidth to/from this memory (bytes/s)
system.mem_ctrls2.bw_total::total           279499132                       # Total bandwidth to/from this memory (bytes/s)
system.mem_ctrls2.readReqs                     383061                       # Number of read requests accepted
system.mem_ctrls2.writeReqs                    323270                       # Number of write requests accepted
system.mem_ctrls2.readBursts                   383061                       # Number of DRAM read bursts, including those serviced by the write queue
system.mem_ctrls2.writeBursts                  323270                       # Number of DRAM write bursts, including those merged in the write queue
system.mem_ctrls2.bytesReadDRAM              24514752                       # Total number of bytes read from DRAM
system.mem_ctrls2.bytesReadWrQ                   1152                       # Total number of bytes read from write queue
system.mem_ctrls2.bytesWritten               20689152                       # Total number of bytes written to DRAM
system.mem_ctrls2.bytesReadSys               24515904                       # Total read bytes from the system interface side
system.mem_ctrls2.bytesWrittenSys            20689280                       # Total written bytes from the system interface side
system.mem_ctrls2.servicedByWrQ                    18                       # Number of DRAM read bursts serviced by the write queue
system.mem_ctrls2.mergedWrBursts                    0                       # Number of DRAM write bursts merged with an existing one
system.mem_ctrls2.neitherReadNorWriteReqs            0                       # Number of requests that are neither read nor write
system.mem_ctrls2.perBankRdBursts::0            23639                       # Per bank write bursts
system.mem_ctrls2.perBankRdBursts::1            24319                       # Per bank write bursts
system.mem_ctrls2.perBankRdBursts::2            23956                       # Per bank write bursts
system.mem_ctrls2.perBankRdBursts::3            24276                       # Per bank write bursts
system.mem_ctrls2.perBankRdBursts::4            23874                       # Per bank write bursts
system.mem_ctrls2.perBankRdBursts::5            24161                       # Per bank write bursts
system.mem_ctrls2.perBankRdBursts::6            24238                       # Per bank write bursts
system.mem_ctrls2.perBankRdBursts::7            24037                       # Per bank write bursts
system.mem_ctrls2.perBankRdBursts::8            23912                       # Per bank write bursts
system.mem_ctrls2.perBankRdBursts::9            24050                       # Per bank write bursts
system.mem_ctrls2.perBankRdBursts::10           23820                       # Per bank write bursts
system.mem_ctrls2.perBankRdBursts::11           24325                       # Per bank write bursts
system.mem_ctrls2.perBankRdBursts::12           23625                       # Per bank write bursts
system.mem_ctrls2.perBankRdBursts::13           23438                       # Per bank write bursts
system.mem_ctrls2.perBankRdBursts::14           23591                       # Per bank write bursts
system.mem_ctrls2.perBankRdBursts::15           23782                       # Per bank write bursts
system.mem_ctrls2.perBankWrBursts::0            20235                       # Per bank write bursts
system.mem_ctrls2.perBankWrBursts::1            20127                       # Per bank write bursts
system.mem_ctrls2.perBankWrBursts::2            20138                       # Per bank write bursts
system.mem_ctrls2.perBankWrBursts::3            20431                       # Per bank write bursts
system.mem_ctrls2.perBankWrBursts::4            20028                       # Per bank write bursts
system.mem_ctrls2.perBankWrBursts::5            20371                       # Per bank write bursts
system.mem_ctrls2.perBankWrBursts::6            20356                       # Per bank write bursts
system.mem_ctrls2.perBankWrBursts::7            20315                       # Per bank write bursts
system.mem_ctrls2.perBankWrBursts::8            20383                       # Per bank write bursts
system.mem_ctrls2.perBankWrBursts::9            20208                       # Per bank write bursts
system.mem_ctrls2.perBankWrBursts::10           20127                       # Per bank write bursts
system.mem_ctrls2.perBankWrBursts::11           20161                       # Per bank write bursts
system.mem_ctrls2.perBankWrBursts::12           19957                       # Per bank write bursts
system.mem_ctrls2.perBankWrBursts::13           20162                       # Per bank write bursts
system.mem_ctrls2.perBankWrBursts::14           20157                       # Per bank write bursts
system.mem_ctrls2.perBankWrBursts::15           20112                       # Per bank write bursts
system.mem_ctrls2.numRdRetry                        0                       # Number of times read queue was full causing retry
system.mem_ctrls2.numWrRetry                      172                       # Number of times write queue was full causing retry
system.mem_ctrls2.totGap                 161735397500                       # Total gap between requests
system.mem_ctrls2.readPktSize::0                    0                       # Read request sizes (log2)
system.mem_ctrls2.readPktSize::1                    0                       # Read request sizes (log2)
system.mem_ctrls2.readPktSize::2                    0                       # Read request sizes (log2)
system.mem_ctrls2.readPktSize::3                    0                       # Read request sizes (log2)
system.mem_ctrls2.readPktSize::4                    0                       # Read request sizes (log2)
system.mem_ctrls2.readPktSize::5                    0                       # Read request sizes (log2)
system.mem_ctrls2.readPktSize::6               383061                       # Read request sizes (log2)
system.mem_ctrls2.writePktSize::0                   0                       # Write request sizes (log2)
system.mem_ctrls2.writePktSize::1                   0                       # Write request sizes (log2)
system.mem_ctrls2.writePktSize::2                   0                       # Write request sizes (log2)
system.mem_ctrls2.writePktSize::3                   0                       # Write request sizes (log2)
system.mem_ctrls2.writePktSize::4                   0                       # Write request sizes (log2)
system.mem_ctrls2.writePktSize::5                   0                       # Write request sizes (log2)
system.mem_ctrls2.writePktSize::6              323270                       # Write request sizes (log2)
system.mem_ctrls2.rdQLenPdf::0                 334020                       # What read queue length does an incoming req see
system.mem_ctrls2.rdQLenPdf::1                  27667                       # What read queue length does an incoming req see
system.mem_ctrls2.rdQLenPdf::2                   9652                       # What read queue length does an incoming req see
system.mem_ctrls2.rdQLenPdf::3                   5602                       # What read queue length does an incoming req see
system.mem_ctrls2.rdQLenPdf::4                   3496                       # What read queue length does an incoming req see
system.mem_ctrls2.rdQLenPdf::5                   1477                       # What read queue length does an incoming req see
system.mem_ctrls2.rdQLenPdf::6                    731                       # What read queue length does an incoming req see
system.mem_ctrls2.rdQLenPdf::7                    293                       # What read queue length does an incoming req see
system.mem_ctrls2.rdQLenPdf::8                     82                       # What read queue length does an incoming req see
system.mem_ctrls2.rdQLenPdf::9                     14                       # What read queue length does an incoming req see
system.mem_ctrls2.rdQLenPdf::10                     4                       # What read queue length does an incoming req see
system.mem_ctrls2.rdQLenPdf::11                     4                       # What read queue length does an incoming req see
system.mem_ctrls2.rdQLenPdf::12                     1                       # What read queue length does an incoming req see
system.mem_ctrls2.rdQLenPdf::13                     0                       # What read queue length does an incoming req see
system.mem_ctrls2.rdQLenPdf::14                     0                       # What read queue length does an incoming req see
system.mem_ctrls2.rdQLenPdf::15                     0                       # What read queue length does an incoming req see
system.mem_ctrls2.rdQLenPdf::16                     0                       # What read queue length does an incoming req see
system.mem_ctrls2.rdQLenPdf::17                     0                       # What read queue length does an incoming req see
system.mem_ctrls2.rdQLenPdf::18                     0                       # What read queue length does an incoming req see
system.mem_ctrls2.rdQLenPdf::19                     0                       # What read queue length does an incoming req see
system.mem_ctrls2.rdQLenPdf::20                     0                       # What read queue length does an incoming req see
system.mem_ctrls2.rdQLenPdf::21                     0                       # What read queue length does an incoming req see
system.mem_ctrls2.rdQLenPdf::22                     0                       # What read queue length does an incoming req see
system.mem_ctrls2.rdQLenPdf::23                     0                       # What read queue length does an incoming req see
system.mem_ctrls2.rdQLenPdf::24                     0                       # What read queue length does an incoming req see
system.mem_ctrls2.rdQLenPdf::25                     0                       # What read queue length does an incoming req see
system.mem_ctrls2.rdQLenPdf::26                     0                       # What read queue length does an incoming req see
system.mem_ctrls2.rdQLenPdf::27                     0                       # What read queue length does an incoming req see
system.mem_ctrls2.rdQLenPdf::28                     0                       # What read queue length does an incoming req see
system.mem_ctrls2.rdQLenPdf::29                     0                       # What read queue length does an incoming req see
system.mem_ctrls2.rdQLenPdf::30                     0                       # What read queue length does an incoming req see
system.mem_ctrls2.rdQLenPdf::31                     0                       # What read queue length does an incoming req see
system.mem_ctrls2.wrQLenPdf::0                  63025                       # What write queue length does an incoming req see
system.mem_ctrls2.wrQLenPdf::1                  64640                       # What write queue length does an incoming req see
system.mem_ctrls2.wrQLenPdf::2                  64485                       # What write queue length does an incoming req see
system.mem_ctrls2.wrQLenPdf::3                  64260                       # What write queue length does an incoming req see
system.mem_ctrls2.wrQLenPdf::4                  64143                       # What write queue length does an incoming req see
system.mem_ctrls2.wrQLenPdf::5                   1397                       # What write queue length does an incoming req see
system.mem_ctrls2.wrQLenPdf::6                    754                       # What write queue length does an incoming req see
system.mem_ctrls2.wrQLenPdf::7                    566                       # What write queue length does an incoming req see
system.mem_ctrls2.bytesPerActivate::samples       162467                       # Bytes accessed per row activation
system.mem_ctrls2.bytesPerActivate::mean   278.234374                       # Bytes accessed per row activation
system.mem_ctrls2.bytesPerActivate::gmean   212.820772                       # Bytes accessed per row activation
system.mem_ctrls2.bytesPerActivate::stdev   216.242217                       # Bytes accessed per row activation
system.mem_ctrls2.bytesPerActivate::0-127        32658     20.10%     20.10% # Bytes accessed per row activation
system.mem_ctrls2.bytesPerActivate::128-255        34166     21.03%     41.13% # Bytes accessed per row activation
system.mem_ctrls2.bytesPerActivate::256-383        74591     45.91%     87.04% # Bytes accessed per row activation
system.mem_ctrls2.bytesPerActivate::384-511         5772      3.55%     90.60% # Bytes accessed per row activation
system.mem_ctrls2.bytesPerActivate::512-639         3011      1.85%     92.45% # Bytes accessed per row activation
system.mem_ctrls2.bytesPerActivate::640-767         2279      1.40%     93.85% # Bytes accessed per row activation
system.mem_ctrls2.bytesPerActivate::768-895         1757      1.08%     94.93% # Bytes accessed per row activation
system.mem_ctrls2.bytesPerActivate::896-1023         1545      0.95%     95.88% # Bytes accessed per row activation
system.mem_ctrls2.bytesPerActivate::1024-1151         6688      4.12%    100.00% # Bytes accessed per row activation
system.mem_ctrls2.bytesPerActivate::total       162467                       # Bytes accessed per row activation
system.mem_ctrls2.rdPerTurnAround::samples        63024                       # Reads before turning the bus around for writes
system.mem_ctrls2.rdPerTurnAround::mean      6.077685                       # Reads before turning the bus around for writes
system.mem_ctrls2.rdPerTurnAround::stdev    13.317813                       # Reads before turning the bus around for writes
system.mem_ctrls2.rdPerTurnAround::0-127        63018     99.99%     99.99% # Reads before turning the bus around for writes
system.mem_ctrls2.rdPerTurnAround::128-255            4      0.01%    100.00% # Reads before turning the bus around for writes
system.mem_ctrls2.rdPerTurnAround::1152-1279            1      0.00%    100.00% # Reads before turning the bus around for writes
system.mem_ctrls2.rdPerTurnAround::2816-2943            1      0.00%    100.00% # Reads before turning the bus around for writes
system.mem_ctrls2.rdPerTurnAround::total        63024                       # Reads before turning the bus around for writes
system.mem_ctrls2.wrPerTurnAround::samples        63024                       # Writes before turning the bus around for reads
system.mem_ctrls2.wrPerTurnAround::mean      5.129284                       # Writes before turning the bus around for reads
system.mem_ctrls2.wrPerTurnAround::gmean     5.103391                       # Writes before turning the bus around for reads
system.mem_ctrls2.wrPerTurnAround::stdev     0.617931                       # Writes before turning the bus around for reads
system.mem_ctrls2.wrPerTurnAround::4-7          61809     98.07%     98.07% # Writes before turning the bus around for reads
system.mem_ctrls2.wrPerTurnAround::8-11          1184      1.88%     99.95% # Writes before turning the bus around for reads
system.mem_ctrls2.wrPerTurnAround::12-15           30      0.05%    100.00% # Writes before turning the bus around for reads
system.mem_ctrls2.wrPerTurnAround::16-19            1      0.00%    100.00% # Writes before turning the bus around for reads
system.mem_ctrls2.wrPerTurnAround::total        63024                       # Writes before turning the bus around for reads
system.mem_ctrls2.totQLat                  5327435853                       # Total ticks spent queuing
system.mem_ctrls2.totMemAccLat            12509492103                       # Total ticks spent from burst creation until serviced by the DRAM
system.mem_ctrls2.totBusLat                1915215000                       # Total ticks spent in databus transfers
system.mem_ctrls2.avgQLat                    13908.19                       # Average queueing delay per DRAM burst
system.mem_ctrls2.avgBusLat                   5000.00                       # Average bus latency per DRAM burst
system.mem_ctrls2.avgMemAccLat               32658.19                       # Average memory access latency per DRAM burst
system.mem_ctrls2.avgRdBW                      151.57                       # Average DRAM read bandwidth in MiByte/s
system.mem_ctrls2.avgWrBW                      127.92                       # Average achieved write bandwidth in MiByte/s
system.mem_ctrls2.avgRdBWSys                   151.58                       # Average system read bandwidth in MiByte/s
system.mem_ctrls2.avgWrBWSys                   127.92                       # Average system write bandwidth in MiByte/s
system.mem_ctrls2.peakBW                     12800.00                       # Theoretical peak bandwidth in MiByte/s
system.mem_ctrls2.busUtil                        2.18                       # Data bus utilization in percentage
system.mem_ctrls2.busUtilRead                    1.18                       # Data bus utilization in percentage for reads
system.mem_ctrls2.busUtilWrite                   1.00                       # Data bus utilization in percentage for writes
system.mem_ctrls2.avgRdQLen                      1.03                       # Average read queue length when enqueuing
system.mem_ctrls2.avgWrQLen                      2.98                       # Average write queue length when enqueuing
system.mem_ctrls2.readRowHits                  300772                       # Number of row buffer hits during reads
system.mem_ctrls2.writeRowHits                 243072                       # Number of row buffer hits during writes
system.mem_ctrls2.readRowHitRate                78.52                       # Row buffer hit rate for reads
system.mem_ctrls2.writeRowHitRate               75.19                       # Row buffer hit rate for writes
system.mem_ctrls2.avgGap                    228979.61                       # Average gap between requests
system.mem_ctrls2.pageHitRate                   77.00                       # Row buffer hit rate, read and write combined
system.mem_ctrls2.memoryStateTime::IDLE   27186029500                       # Time in different power states
system.mem_ctrls2.memoryStateTime::REF     5400720000                       # Time in different power states
system.mem_ctrls2.memoryStateTime::PRE_PDN            0                       # Time in different power states
system.mem_ctrls2.memoryStateTime::ACT   129149509250                       # Time in different power states
system.mem_ctrls2.memoryStateTime::ACT_PDN            0                       # Time in different power states
system.mem_ctrls2.actEnergy::0              619610040                       # Energy for activate commands per rank (pJ)
system.mem_ctrls2.actEnergy::1              608640480                       # Energy for activate commands per rank (pJ)
system.mem_ctrls2.preEnergy::0              338080875                       # Energy for precharge commands per rank (pJ)
system.mem_ctrls2.preEnergy::1              332095500                       # Energy for precharge commands per rank (pJ)
system.mem_ctrls2.readEnergy::0            1501500000                       # Energy for read commands per rank (pJ)
system.mem_ctrls2.readEnergy::1            1486235400                       # Energy for read commands per rank (pJ)
system.mem_ctrls2.writeEnergy::0           1049766480                       # Energy for write commands per rank (pJ)
system.mem_ctrls2.writeEnergy::1           1045010160                       # Energy for write commands per rank (pJ)
system.mem_ctrls2.refreshEnergy::0        10563808320                       # Energy for refresh commands per rank (pJ)
system.mem_ctrls2.refreshEnergy::1        10563808320                       # Energy for refresh commands per rank (pJ)
system.mem_ctrls2.actBackEnergy::0        64721768625                       # Energy for active background per rank (pJ)
system.mem_ctrls2.actBackEnergy::1        64284867045                       # Energy for active background per rank (pJ)
system.mem_ctrls2.preBackEnergy::0        40268265750                       # Energy for precharge background per rank (pJ)
system.mem_ctrls2.preBackEnergy::1        40651512750                       # Energy for precharge background per rank (pJ)
system.mem_ctrls2.totalEnergy::0         119062800090                       # Total energy per rank (pJ)
system.mem_ctrls2.totalEnergy::1         118972169655                       # Total energy per rank (pJ)
system.mem_ctrls2.averagePower::0          736.154101                       # Core power per rank (mW)
system.mem_ctrls2.averagePower::1          735.593742                       # Core power per rank (mW)
system.mem_ctrls3.bytes_read::ruby.dir_cntrl3     24495232                       # Number of bytes read from this memory
system.mem_ctrls3.bytes_read::total          24495232                       # Number of bytes read from this memory
system.mem_ctrls3.bytes_written::ruby.dir_cntrl3     20686592                       # Number of bytes written to this memory
system.mem_ctrls3.bytes_written::total       20686592                       # Number of bytes written to this memory
system.mem_ctrls3.num_reads::ruby.dir_cntrl3       382738                       # Number of read requests responded to by this memory
system.mem_ctrls3.num_reads::total             382738                       # Number of read requests responded to by this memory
system.mem_ctrls3.num_writes::ruby.dir_cntrl3       323228                       # Number of write requests responded to by this memory
system.mem_ctrls3.num_writes::total            323228                       # Number of write requests responded to by this memory
system.mem_ctrls3.bw_read::ruby.dir_cntrl3    151451570                       # Total read bandwidth from this memory (bytes/s)
system.mem_ctrls3.bw_read::total            151451570                       # Total read bandwidth from this memory (bytes/s)
system.mem_ctrls3.bw_write::ruby.dir_cntrl3    127903130                       # Write bandwidth from this memory (bytes/s)
system.mem_ctrls3.bw_write::total           127903130                       # Write bandwidth from this memory (bytes/s)
system.mem_ctrls3.bw_total::ruby.dir_cntrl3    279354700                       # Total bandwidth to/from this memory (bytes/s)
system.mem_ctrls3.bw_total::total           279354700                       # Total bandwidth to/from this memory (bytes/s)
system.mem_ctrls3.readReqs                     382738                       # Number of read requests accepted
system.mem_ctrls3.writeReqs                    323228                       # Number of write requests accepted
system.mem_ctrls3.readBursts                   382738                       # Number of DRAM read bursts, including those serviced by the write queue
system.mem_ctrls3.writeBursts                  323228                       # Number of DRAM write bursts, including those merged in the write queue
system.mem_ctrls3.bytesReadDRAM              24494592                       # Total number of bytes read from DRAM
system.mem_ctrls3.bytesReadWrQ                    640                       # Total number of bytes read from write queue
system.mem_ctrls3.bytesWritten               20686592                       # Total number of bytes written to DRAM
system.mem_ctrls3.bytesReadSys               24495232                       # Total read bytes from the system interface side
system.mem_ctrls3.bytesWrittenSys            20686592                       # Total written bytes from the system interface side
system.mem_ctrls3.servicedByWrQ                    10                       # Number of DRAM read bursts serviced by the write queue
system.mem_ctrls3.mergedWrBursts                    0                       # Number of DRAM write bursts merged with an existing one
system.mem_ctrls3.neitherReadNorWriteReqs            0                       # Number of requests that are neither read nor write
system.mem_ctrls3.perBankRdBursts::0            23633                       # Per bank write bursts
system.mem_ctrls3.perBankRdBursts::1            24317                       # Per bank write bursts
system.mem_ctrls3.perBankRdBursts::2            23826                       # Per bank write bursts
system.mem_ctrls3.perBankRdBursts::3            24238                       # Per bank write bursts
system.mem_ctrls3.perBankRdBursts::4            23817                       # Per bank write bursts
system.mem_ctrls3.perBankRdBursts::5            24167                       # Per bank write bursts
system.mem_ctrls3.perBankRdBursts::6            24234                       # Per bank write bursts
system.mem_ctrls3.perBankRdBursts::7            24039                       # Per bank write bursts
system.mem_ctrls3.perBankRdBursts::8            23900                       # Per bank write bursts
system.mem_ctrls3.perBankRdBursts::9            24027                       # Per bank write bursts
system.mem_ctrls3.perBankRdBursts::10           23887                       # Per bank write bursts
system.mem_ctrls3.perBankRdBursts::11           24278                       # Per bank write bursts
system.mem_ctrls3.perBankRdBursts::12           23558                       # Per bank write bursts
system.mem_ctrls3.perBankRdBursts::13           23449                       # Per bank write bursts
system.mem_ctrls3.perBankRdBursts::14           23609                       # Per bank write bursts
system.mem_ctrls3.perBankRdBursts::15           23749                       # Per bank write bursts
system.mem_ctrls3.perBankWrBursts::0            20236                       # Per bank write bursts
system.mem_ctrls3.perBankWrBursts::1            20124                       # Per bank write bursts
system.mem_ctrls3.perBankWrBursts::2            20134                       # Per bank write bursts
system.mem_ctrls3.perBankWrBursts::3            20419                       # Per bank write bursts
system.mem_ctrls3.perBankWrBursts::4            20022                       # Per bank write bursts
system.mem_ctrls3.perBankWrBursts::5            20372                       # Per bank write bursts
system.mem_ctrls3.perBankWrBursts::6            20357                       # Per bank write bursts
system.mem_ctrls3.perBankWrBursts::7            20303                       # Per bank write bursts
system.mem_ctrls3.perBankWrBursts::8            20379                       # Per bank write bursts
system.mem_ctrls3.perBankWrBursts::9            20209                       # Per bank write bursts
system.mem_ctrls3.perBankWrBursts::10           20128                       # Per bank write bursts
system.mem_ctrls3.perBankWrBursts::11           20172                       # Per bank write bursts
system.mem_ctrls3.perBankWrBursts::12           19957                       # Per bank write bursts
system.mem_ctrls3.perBankWrBursts::13           20169                       # Per bank write bursts
system.mem_ctrls3.perBankWrBursts::14           20157                       # Per bank write bursts
system.mem_ctrls3.perBankWrBursts::15           20090                       # Per bank write bursts
system.mem_ctrls3.numRdRetry                        0                       # Number of times read queue was full causing retry
system.mem_ctrls3.numWrRetry                      209                       # Number of times write queue was full causing retry
system.mem_ctrls3.totGap                 161735076500                       # Total gap between requests
system.mem_ctrls3.readPktSize::0                    0                       # Read request sizes (log2)
system.mem_ctrls3.readPktSize::1                    0                       # Read request sizes (log2)
system.mem_ctrls3.readPktSize::2                    0                       # Read request sizes (log2)
system.mem_ctrls3.readPktSize::3                    0                       # Read request sizes (log2)
system.mem_ctrls3.readPktSize::4                    0                       # Read request sizes (log2)
system.mem_ctrls3.readPktSize::5                    0                       # Read request sizes (log2)
system.mem_ctrls3.readPktSize::6               382738                       # Read request sizes (log2)
system.mem_ctrls3.writePktSize::0                   0                       # Write request sizes (log2)
system.mem_ctrls3.writePktSize::1                   0                       # Write request sizes (log2)
system.mem_ctrls3.writePktSize::2                   0                       # Write request sizes (log2)
system.mem_ctrls3.writePktSize::3                   0                       # Write request sizes (log2)
system.mem_ctrls3.writePktSize::4                   0                       # Write request sizes (log2)
system.mem_ctrls3.writePktSize::5                   0                       # Write request sizes (log2)
system.mem_ctrls3.writePktSize::6              323228                       # Write request sizes (log2)
system.mem_ctrls3.rdQLenPdf::0                 332387                       # What read queue length does an incoming req see
system.mem_ctrls3.rdQLenPdf::1                  27778                       # What read queue length does an incoming req see
system.mem_ctrls3.rdQLenPdf::2                  10672                       # What read queue length does an incoming req see
system.mem_ctrls3.rdQLenPdf::3                   5652                       # What read queue length does an incoming req see
system.mem_ctrls3.rdQLenPdf::4                   3624                       # What read queue length does an incoming req see
system.mem_ctrls3.rdQLenPdf::5                   1524                       # What read queue length does an incoming req see
system.mem_ctrls3.rdQLenPdf::6                    688                       # What read queue length does an incoming req see
system.mem_ctrls3.rdQLenPdf::7                    310                       # What read queue length does an incoming req see
system.mem_ctrls3.rdQLenPdf::8                     72                       # What read queue length does an incoming req see
system.mem_ctrls3.rdQLenPdf::9                     15                       # What read queue length does an incoming req see
system.mem_ctrls3.rdQLenPdf::10                     4                       # What read queue length does an incoming req see
system.mem_ctrls3.rdQLenPdf::11                     1                       # What read queue length does an incoming req see
system.mem_ctrls3.rdQLenPdf::12                     1                       # What read queue length does an incoming req see
system.mem_ctrls3.rdQLenPdf::13                     0                       # What read queue length does an incoming req see
system.mem_ctrls3.rdQLenPdf::14                     0                       # What read queue length does an incoming req see
system.mem_ctrls3.rdQLenPdf::15                     0                       # What read queue length does an incoming req see
system.mem_ctrls3.rdQLenPdf::16                     0                       # What read queue length does an incoming req see
system.mem_ctrls3.rdQLenPdf::17                     0                       # What read queue length does an incoming req see
system.mem_ctrls3.rdQLenPdf::18                     0                       # What read queue length does an incoming req see
system.mem_ctrls3.rdQLenPdf::19                     0                       # What read queue length does an incoming req see
system.mem_ctrls3.rdQLenPdf::20                     0                       # What read queue length does an incoming req see
system.mem_ctrls3.rdQLenPdf::21                     0                       # What read queue length does an incoming req see
system.mem_ctrls3.rdQLenPdf::22                     0                       # What read queue length does an incoming req see
[...]
system.ruby.L2Cache_Controller.MCT_I.Ack_all::total         1884                      
system.ruby.L2Cache_Controller.I_I.Ack_all |         546      3.24%      3.24% |         472      2.80%      6.05% |         473      2.81%      8.86% |         469      2.79%     11.65% |         513      3.05%     14.69% |         473      2.81%     17.50% |         510      3.03%     20.53% |         533      3.17%     23.70% |         552      3.28%     26.98% |         494      2.94%     29.92% |         541      3.21%     33.13% |         571      3.39%     36.52% |         628      3.73%     40.25% |         572      3.40%     43.65% |         584      3.47%     47.12% |         531      3.15%     50.28% |         541      3.21%     53.49% |         578      3.43%     56.92% |         572      3.40%     60.32% |         510      3.03%     63.35% |         508      3.02%     66.37% |         532      3.16%     69.53% |         493      2.93%     72.46% |         479      2.85%     75.31% |         553      3.29%     78.59% |         600      3.56%     82.16% |         543      3.23%     85.38% |         484      2.88%     88.26% |         495      2.94%     91.20% |         515      3.06%     94.26% |         493      2.93%     97.19% |         473      2.81%    100.00%
system.ruby.L2Cache_Controller.I_I.Ack_all::total        16831                      
system.ruby.L2Cache_Controller.S_I.Ack   |           0      0.00%      0.00% |           0      0.00%      0.00% |           0      0.00%      0.00% |           0      0.00%      0.00% |           0      0.00%      0.00% |           1     50.00%     50.00% |           0      0.00%     50.00% |           0      0.00%     50.00% |           0      0.00%     50.00% |           0      0.00%     50.00% |           0      0.00%     50.00% |           0      0.00%     50.00% |           0      0.00%     50.00% |           0      0.00%     50.00% |           0      0.00%     50.00% |           0      0.00%     50.00% |           0      0.00%     50.00% |           0      0.00%     50.00% |           0      0.00%     50.00% |           0      0.00%     50.00% |           0      0.00%     50.00% |           0      0.00%     50.00% |           0      0.00%     50.00% |           0      0.00%     50.00% |           0      0.00%     50.00% |           0      0.00%     50.00% |           0      0.00%     50.00% |           0      0.00%     50.00% |           1     50.00%    100.00% |           0      0.00%    100.00% |           0      0.00%    100.00% |           0      0.00%    100.00%
system.ruby.L2Cache_Controller.S_I.Ack::total            2                      
system.ruby.L2Cache_Controller.S_I.Ack_all |           0      0.00%      0.00% |           4     28.57%     28.57% |           1      7.14%     35.71% |           1      7.14%     42.86% |           0      0.00%     42.86% |           2     14.29%     57.14% |           0      0.00%     57.14% |           0      0.00%     57.14% |           0      0.00%     57.14% |           1      7.14%     64.29% |           1      7.14%     71.43% |           0      0.00%     71.43% |           0      0.00%     71.43% |           0      0.00%     71.43% |           1      7.14%     78.57% |           0      0.00%     78.57% |           0      0.00%     78.57% |           0      0.00%     78.57% |           1      7.14%     85.71% |           0      0.00%     85.71% |           0      0.00%     85.71% |           0      0.00%     85.71% |           0      0.00%     85.71% |           0      0.00%     85.71% |           1      7.14%     92.86% |           0      0.00%     92.86% |           0      0.00%     92.86% |           0      0.00%     92.86% |           1      7.14%    100.00% |           0      0.00%    100.00% |           0      0.00%    100.00% |           0      0.00%    100.00%
system.ruby.L2Cache_Controller.S_I.Ack_all::total           14                      
system.ruby.L2Cache_Controller.ISS.Mem_Data |       18686      7.92%      7.92% |        7083      3.00%     10.93% |        7096      3.01%     13.94% |        7036      2.98%     16.92% |        7004      2.97%     19.89% |        6991      2.96%     22.86% |        6998      2.97%     25.82% |        6993      2.97%     28.79% |        7033      2.98%     31.77% |        7033      2.98%     34.75% |        7069      3.00%     37.75% |        6990      2.96%     40.72% |        6993      2.97%     43.68% |        6995      2.97%     46.65% |        6999      2.97%     49.62% |        6958      2.95%     52.57% |        6996      2.97%     55.53% |        6974      2.96%     58.49% |        7007      2.97%     61.46% |        6986      2.96%     64.42% |        6985      2.96%     67.39% |        6969      2.96%     70.34% |        6995      2.97%     73.31% |        6988      2.96%     76.27% |        7008      2.97%     79.24% |        7010      2.97%     82.22% |        6985      2.96%     85.18% |        6963      2.95%     88.13% |        7008      2.97%     91.10% |        6984      2.96%     94.07% |        6959      2.95%     97.02% |        7036      2.98%    100.00%
system.ruby.L2Cache_Controller.ISS.Mem_Data::total       235810                      
system.ruby.L2Cache_Controller.IS.Mem_Data |         546      3.24%      3.24% |         474      2.81%      6.05% |         473      2.81%      8.86% |         469      2.78%     11.64% |         513      3.04%     14.69% |         471      2.80%     17.48% |         508      3.02%     20.50% |         533      3.16%     23.66% |         553      3.28%     26.95% |         497      2.95%     29.89% |         540      3.20%     33.10% |         571      3.39%     36.49% |         628      3.73%     40.22% |         572      3.39%     43.61% |         586      3.48%     47.09% |         533      3.16%     50.25% |         543      3.22%     53.47% |         579      3.44%     56.91% |         571      3.39%     60.30% |         514      3.05%     63.35% |         510      3.03%     66.38% |         533      3.16%     69.54% |         491      2.91%     72.46% |         478      2.84%     75.29% |         552      3.28%     78.57% |         601      3.57%     82.14% |         542      3.22%     85.35% |         486      2.88%     88.24% |         498      2.96%     91.19% |         517      3.07%     94.26% |         495      2.94%     97.20% |         472      2.80%    100.00%
system.ruby.L2Cache_Controller.IS.Mem_Data::total        16849                      
system.ruby.L2Cache_Controller.IM.Mem_Data |       40397      3.13%      3.13% |       40331      3.12%      6.25% |       40344      3.12%      9.38% |       40349      3.13%     12.50% |       40353      3.13%     15.63% |       40365      3.13%     18.75% |       40339      3.12%     21.88% |       40336      3.12%     25.00% |       40353      3.13%     28.13% |       40344      3.12%     31.25% |       40329      3.12%     34.38% |       40358      3.13%     37.50% |       40341      3.12%     40.63% |       40338      3.12%     43.75% |       40341      3.12%     46.88% |       40330      3.12%     50.00% |       40352      3.13%     53.13% |       40353      3.13%     56.25% |       40350      3.13%     59.38% |       40345      3.12%     62.50% |       40340      3.12%     65.63% |       40354      3.13%     68.75% |       40339      3.12%     71.88% |       40341      3.12%     75.00% |       40347      3.13%     78.13% |       40345      3.12%     81.25% |       40350      3.13%     84.38% |       40339      3.12%     87.50% |       40337      3.12%     90.63% |       40340      3.12%     93.75% |       40355      3.13%     96.88% |       40334      3.12%    100.00%
system.ruby.L2Cache_Controller.IM.Mem_Data::total      1291069                      
system.ruby.L2Cache_Controller.SS_MB.Exclusive_Unblock |           4      8.89%      8.89% |           6     13.33%     22.22% |           2      4.44%     26.67% |           6     13.33%     40.00% |           1      2.22%     42.22% |           0      0.00%     42.22% |           1      2.22%     44.44% |           0      0.00%     44.44% |           0      0.00%     44.44% |           1      2.22%     46.67% |           1      2.22%     48.89% |           0      0.00%     48.89% |           4      8.89%     57.78% |           0      0.00%     57.78% |           3      6.67%     64.44% |           0      0.00%     64.44% |           0      0.00%     64.44% |           0      0.00%     64.44% |           9     20.00%     84.44% |           0      0.00%     84.44% |           0      0.00%     84.44% |           0      0.00%     84.44% |           0      0.00%     84.44% |           0      0.00%     84.44% |           1      2.22%     86.67% |           2      4.44%     91.11% |           1      2.22%     93.33% |           1      2.22%     95.56% |           0      0.00%     95.56% |           1      2.22%     97.78% |           1      2.22%    100.00% |           0      0.00%    100.00%
system.ruby.L2Cache_Controller.SS_MB.Exclusive_Unblock::total           45                      
system.ruby.L2Cache_Controller.MT_MB.L1_PUTX |           2    100.00%    100.00% |           0      0.00%    100.00% |           0      0.00%    100.00% |           0      0.00%    100.00% |           0      0.00%    100.00% |           0      0.00%    100.00% |           0      0.00%    100.00% |           0      0.00%    100.00% |           0      0.00%    100.00% |           0      0.00%    100.00% |           0      0.00%    100.00% |           0      0.00%    100.00% |           0      0.00%    100.00% |           0      0.00%    100.00% |           0      0.00%    100.00% |           0      0.00%    100.00% |           0      0.00%    100.00% |           0      0.00%    100.00% |           0      0.00%    100.00% |           0      0.00%    100.00% |           0      0.00%    100.00% |           0      0.00%    100.00% |           0      0.00%    100.00% |           0      0.00%    100.00% |           0      0.00%    100.00% |           0      0.00%    100.00% |           0      0.00%    100.00% |           0      0.00%    100.00% |           0      0.00%    100.00% |           0      0.00%    100.00% |           0      0.00%    100.00% |           0      0.00%    100.00%
system.ruby.L2Cache_Controller.MT_MB.L1_PUTX::total            2                      
system.ruby.L2Cache_Controller.MT_MB.Exclusive_Unblock |      172384      8.45%      8.45% |       64262      3.15%     11.60% |       58766      2.88%     14.48% |       58465      2.87%     17.34% |       57803      2.83%     20.18% |       56510      2.77%     22.95% |       55010      2.70%     25.64% |       55301      2.71%     28.35% |       58999      2.89%     31.24% |       57720      2.83%     34.07% |       60647      2.97%     37.05% |       60211      2.95%     40.00% |       56862      2.79%     42.78% |       56796      2.78%     45.57% |       56451      2.77%     48.33% |       56867      2.79%     51.12% |       59173      2.90%     54.02% |       58515      2.87%     56.89% |       59887      2.94%     59.82% |       60879      2.98%     62.81% |       60911      2.99%     65.79% |       63097      3.09%     68.89% |       64329      3.15%     72.04% |       60553      2.97%     75.01% |       60976      2.99%     77.99% |       62476      3.06%     81.06% |       60799      2.98%     84.04% |       61420      3.01%     87.05% |       64095      3.14%     90.19% |       61915      3.03%     93.22% |       70028      3.43%     96.65% |       68272      3.35%    100.00%
system.ruby.L2Cache_Controller.MT_MB.Exclusive_Unblock::total      2040379                      
system.ruby.L2Cache_Controller.MT_IIB.WB_Data |           0      0.00%      0.00% |           0      0.00%      0.00% |           0      0.00%      0.00% |           0      0.00%      0.00% |           0      0.00%      0.00% |           1     50.00%     50.00% |           0      0.00%     50.00% |           0      0.00%     50.00% |           0      0.00%     50.00% |           0      0.00%     50.00% |           0      0.00%     50.00% |           0      0.00%     50.00% |           0      0.00%     50.00% |           0      0.00%     50.00% |           0      0.00%     50.00% |           0      0.00%     50.00% |           0      0.00%     50.00% |           0      0.00%     50.00% |           0      0.00%     50.00% |           0      0.00%     50.00% |           0      0.00%     50.00% |           0      0.00%     50.00% |           0      0.00%     50.00% |           0      0.00%     50.00% |           0      0.00%     50.00% |           0      0.00%     50.00% |           0      0.00%     50.00% |           0      0.00%     50.00% |           1     50.00%    100.00% |           0      0.00%    100.00% |           0      0.00%    100.00% |           0      0.00%    100.00%
system.ruby.L2Cache_Controller.MT_IIB.WB_Data::total            2                      
system.ruby.L2Cache_Controller.MT_SB.Unblock |           0      0.00%      0.00% |           0      0.00%      0.00% |           0      0.00%      0.00% |           0      0.00%      0.00% |           0      0.00%      0.00% |           1     50.00%     50.00% |           0      0.00%     50.00% |           0      0.00%     50.00% |           0      0.00%     50.00% |           0      0.00%     50.00% |           0      0.00%     50.00% |           0      0.00%     50.00% |           0      0.00%     50.00% |           0      0.00%     50.00% |           0      0.00%     50.00% |           0      0.00%     50.00% |           0      0.00%     50.00% |           0      0.00%     50.00% |           0      0.00%     50.00% |           0      0.00%     50.00% |           0      0.00%     50.00% |           0      0.00%     50.00% |           0      0.00%     50.00% |           0      0.00%     50.00% |           0      0.00%     50.00% |           0      0.00%     50.00% |           0      0.00%     50.00% |           0      0.00%     50.00% |           1     50.00%    100.00% |           0      0.00%    100.00% |           0      0.00%    100.00% |           0      0.00%    100.00%
system.ruby.L2Cache_Controller.MT_SB.Unblock::total            2                      
system.ruby.SimicsNetworkPortInterface_Controller.MessageSend |      120292     20.95%     20.95% |      287150     50.00%     70.95% |      166858     29.05%    100.00% |           0      0.00%    100.00% |           0      0.00%    100.00% |           0      0.00%    100.00% |           0      0.00%    100.00% |           0      0.00%    100.00% |           0      0.00%    100.00% |           0      0.00%    100.00% |           0      0.00%    100.00% |           0      0.00%    100.00% |           0      0.00%    100.00% |           0      0.00%    100.00% |           0      0.00%    100.00% |           0      0.00%    100.00% |           0      0.00%    100.00% |           0      0.00%    100.00% |           0      0.00%    100.00% |           0      0.00%    100.00% |           0      0.00%    100.00% |           0      0.00%    100.00% |           0      0.00%    100.00% |           0      0.00%    100.00% |           0      0.00%    100.00% |           0      0.00%    100.00% |           0      0.00%    100.00% |           0      0.00%    100.00% |           0      0.00%    100.00% |           0      0.00%    100.00% |           0      0.00%    100.00% |           0      0.00%    100.00%
system.ruby.SimicsNetworkPortInterface_Controller.MessageSend::total       574300                      
system.ruby.SimicsNetworkPortInterface_Controller.MessageRecv |      120292     20.95%     20.95% |      287150     50.00%     70.95% |      166858     29.05%    100.00% |           0      0.00%    100.00% |           0      0.00%    100.00% |           0      0.00%    100.00% |           0      0.00%    100.00% |           0      0.00%    100.00% |           0      0.00%    100.00% |           0      0.00%    100.00% |           0      0.00%    100.00% |           0      0.00%    100.00% |           0      0.00%    100.00% |           0      0.00%    100.00% |           0      0.00%    100.00% |           0      0.00%    100.00% |           0      0.00%    100.00% |           0      0.00%    100.00% |           0      0.00%    100.00% |           0      0.00%    100.00% |           0      0.00%    100.00% |           0      0.00%    100.00% |           0      0.00%    100.00% |           0      0.00%    100.00% |           0      0.00%    100.00% |           0      0.00%    100.00% |           0      0.00%    100.00% |           0      0.00%    100.00% |           0      0.00%    100.00% |           0      0.00%    100.00% |           0      0.00%    100.00% |           0      0.00%    100.00%
system.ruby.SimicsNetworkPortInterface_Controller.MessageRecv::total       574300                      
system.ruby.SimicsNetworkPortInterface_Controller.A.MessageSend |      120292     20.95%     20.95% |      287150     50.00%     70.95% |      166858     29.05%    100.00% |           0      0.00%    100.00% |           0      0.00%    100.00% |           0      0.00%    100.00% |           0      0.00%    100.00% |           0      0.00%    100.00% |           0      0.00%    100.00% |           0      0.00%    100.00% |           0      0.00%    100.00% |           0      0.00%    100.00% |           0      0.00%    100.00% |           0      0.00%    100.00% |           0      0.00%    100.00% |           0      0.00%    100.00% |           0      0.00%    100.00% |           0      0.00%    100.00% |           0      0.00%    100.00% |           0      0.00%    100.00% |           0      0.00%    100.00% |           0      0.00%    100.00% |           0      0.00%    100.00% |           0      0.00%    100.00% |           0      0.00%    100.00% |           0      0.00%    100.00% |           0      0.00%    100.00% |           0      0.00%    100.00% |           0      0.00%    100.00% |           0      0.00%    100.00% |           0      0.00%    100.00% |           0      0.00%    100.00%
system.ruby.SimicsNetworkPortInterface_Controller.A.MessageSend::total       574300                      
system.ruby.SimicsNetworkPortInterface_Controller.A.MessageRecv |      120292     20.95%     20.95% |      287150     50.00%     70.95% |      166858     29.05%    100.00% |           0      0.00%    100.00% |           0      0.00%    100.00% |           0      0.00%    100.00% |           0      0.00%    100.00% |           0      0.00%    100.00% |           0      0.00%    100.00% |           0      0.00%    100.00% |           0      0.00%    100.00% |           0      0.00%    100.00% |           0      0.00%    100.00% |           0      0.00%    100.00% |           0      0.00%    100.00% |           0      0.00%    100.00% |           0      0.00%    100.00% |           0      0.00%    100.00% |           0      0.00%    100.00% |           0      0.00%    100.00% |           0      0.00%    100.00% |           0      0.00%    100.00% |           0      0.00%    100.00% |           0      0.00%    100.00% |           0      0.00%    100.00% |           0      0.00%    100.00% |           0      0.00%    100.00% |           0      0.00%    100.00% |           0      0.00%    100.00% |           0      0.00%    100.00% |           0      0.00%    100.00% |           0      0.00%    100.00%
system.ruby.SimicsNetworkPortInterface_Controller.A.MessageRecv::total       574300                      
system.switch_cpus.kern.inst.arm                    0                       # number of arm instructions executed
system.switch_cpus.kern.inst.quiesce                0                       # number of quiesce instructions executed

---------- End Simulation Statistics   ----------
