
---------- Begin Simulation Statistics ----------
sim_seconds                                  0.124104                       # Number of seconds simulated
sim_ticks                                124103978000                       # Number of ticks simulated
final_tick                               5300272056500                       # Number of ticks from beginning of simulation (restored from checkpoints and never reset)
sim_freq                                 1000000000000                       # Frequency of simulated ticks
host_inst_rate                                  96082                       # Simulator instruction rate (inst/s)
host_op_rate                                   156299                       # Simulator op (including micro ops) rate (op/s)
host_tick_rate                               98849005                       # Simulator tick rate (ticks/s)
host_mem_usage                                4815076                       # Number of bytes of host memory used
host_seconds                                  1255.49                       # Real time elapsed on the host
sim_insts                                   120630113                       # Number of instructions simulated
sim_ops                                     196232081                       # Number of ops (including micro ops) simulated
system.voltage_domain.voltage                       1                       # Voltage in Volts
system.clk_domain.clock                           500                       # Clock period in ticks
system.mem_ctrls0.bytes_read::ruby.dir_cntrl0     14071040                       # Number of bytes read from this memory
system.mem_ctrls0.bytes_read::total          14071040                       # Number of bytes read from this memory
system.mem_ctrls0.bytes_written::ruby.dir_cntrl0      4014208                       # Number of bytes written to this memory
system.mem_ctrls0.bytes_written::total        4014208                       # Number of bytes written to this memory
system.mem_ctrls0.num_reads::ruby.dir_cntrl0       219860                       # Number of read requests responded to by this memory
system.mem_ctrls0.num_reads::total             219860                       # Number of read requests responded to by this memory
system.mem_ctrls0.num_writes::ruby.dir_cntrl0        62722                       # Number of write requests responded to by this memory
system.mem_ctrls0.num_writes::total             62722                       # Number of write requests responded to by this memory
system.mem_ctrls0.bw_read::ruby.dir_cntrl0    113381055                       # Total read bandwidth from this memory (bytes/s)
system.mem_ctrls0.bw_read::total            113381055                       # Total read bandwidth from this memory (bytes/s)
system.mem_ctrls0.bw_write::ruby.dir_cntrl0     32345522                       # Write bandwidth from this memory (bytes/s)
system.mem_ctrls0.bw_write::total            32345522                       # Write bandwidth from this memory (bytes/s)
system.mem_ctrls0.bw_total::ruby.dir_cntrl0    145726578                       # Total bandwidth to/from this memory (bytes/s)
system.mem_ctrls0.bw_total::total           145726578                       # Total bandwidth to/from this memory (bytes/s)
system.mem_ctrls0.readReqs                     219860                       # Number of read requests accepted
system.mem_ctrls0.writeReqs                     62722                       # Number of write requests accepted
system.mem_ctrls0.readBursts                   219860                       # Number of DRAM read bursts, including those serviced by the write queue
system.mem_ctrls0.writeBursts                   62722                       # Number of DRAM write bursts, including those merged in the write queue
system.mem_ctrls0.bytesReadDRAM              14068608                       # Total number of bytes read from DRAM
system.mem_ctrls0.bytesReadWrQ                   2432                       # Total number of bytes read from write queue
system.mem_ctrls0.bytesWritten                4014080                       # Total number of bytes written to DRAM
system.mem_ctrls0.bytesReadSys               14071040                       # Total read bytes from the system interface side
system.mem_ctrls0.bytesWrittenSys             4014208                       # Total written bytes from the system interface side
system.mem_ctrls0.servicedByWrQ                    38                       # Number of DRAM read bursts serviced by the write queue
system.mem_ctrls0.mergedWrBursts                    0                       # Number of DRAM write bursts merged with an existing one
system.mem_ctrls0.neitherReadNorWriteReqs            0                       # Number of requests that are neither read nor write
system.mem_ctrls0.perBankRdBursts::0            13467                       # Per bank write bursts
system.mem_ctrls0.perBankRdBursts::1            14091                       # Per bank write bursts
system.mem_ctrls0.perBankRdBursts::2            13746                       # Per bank write bursts
system.mem_ctrls0.perBankRdBursts::3            14064                       # Per bank write bursts
system.mem_ctrls0.perBankRdBursts::4            13728                       # Per bank write bursts
system.mem_ctrls0.perBankRdBursts::5            14279                       # Per bank write bursts
system.mem_ctrls0.perBankRdBursts::6            13784                       # Per bank write bursts
system.mem_ctrls0.perBankRdBursts::7            13696                       # Per bank write bursts
system.mem_ctrls0.perBankRdBursts::8            13648                       # Per bank write bursts
system.mem_ctrls0.perBankRdBursts::9            13924                       # Per bank write bursts
system.mem_ctrls0.perBankRdBursts::10           13678                       # Per bank write bursts
system.mem_ctrls0.perBankRdBursts::11           13837                       # Per bank write bursts
system.mem_ctrls0.perBankRdBursts::12           13385                       # Per bank write bursts
system.mem_ctrls0.perBankRdBursts::13           13317                       # Per bank write bursts
system.mem_ctrls0.perBankRdBursts::14           13598                       # Per bank write bursts
system.mem_ctrls0.perBankRdBursts::15           13580                       # Per bank write bursts
system.mem_ctrls0.perBankWrBursts::0             3854                       # Per bank write bursts
system.mem_ctrls0.perBankWrBursts::1             3937                       # Per bank write bursts
system.mem_ctrls0.perBankWrBursts::2             3908                       # Per bank write bursts
system.mem_ctrls0.perBankWrBursts::3             4133                       # Per bank write bursts
system.mem_ctrls0.perBankWrBursts::4             3923                       # Per bank write bursts
system.mem_ctrls0.perBankWrBursts::5             4079                       # Per bank write bursts
system.mem_ctrls0.perBankWrBursts::6             3987                       # Per bank write bursts
system.mem_ctrls0.perBankWrBursts::7             3968                       # Per bank write bursts
system.mem_ctrls0.perBankWrBursts::8             3819                       # Per bank write bursts
system.mem_ctrls0.perBankWrBursts::9             4095                       # Per bank write bursts
system.mem_ctrls0.perBankWrBursts::10            3828                       # Per bank write bursts
system.mem_ctrls0.perBankWrBursts::11            3793                       # Per bank write bursts
system.mem_ctrls0.perBankWrBursts::12            3724                       # Per bank write bursts
system.mem_ctrls0.perBankWrBursts::13            3770                       # Per bank write bursts
system.mem_ctrls0.perBankWrBursts::14            4024                       # Per bank write bursts
system.mem_ctrls0.perBankWrBursts::15            3878                       # Per bank write bursts
system.mem_ctrls0.numRdRetry                        0                       # Number of times read queue was full causing retry
system.mem_ctrls0.numWrRetry                        0                       # Number of times write queue was full causing retry
system.mem_ctrls0.totGap                 124103486500                       # Total gap between requests
system.mem_ctrls0.readPktSize::0                    0                       # Read request sizes (log2)
system.mem_ctrls0.readPktSize::1                    0                       # Read request sizes (log2)
system.mem_ctrls0.readPktSize::2                    0                       # Read request sizes (log2)
system.mem_ctrls0.readPktSize::3                    0                       # Read request sizes (log2)
system.mem_ctrls0.readPktSize::4                    0                       # Read request sizes (log2)
system.mem_ctrls0.readPktSize::5                    0                       # Read request sizes (log2)
system.mem_ctrls0.readPktSize::6               219860                       # Read request sizes (log2)
system.mem_ctrls0.writePktSize::0                   0                       # Write request sizes (log2)
system.mem_ctrls0.writePktSize::1                   0                       # Write request sizes (log2)
system.mem_ctrls0.writePktSize::2                   0                       # Write request sizes (log2)
system.mem_ctrls0.writePktSize::3                   0                       # Write request sizes (log2)
system.mem_ctrls0.writePktSize::4                   0                       # Write request sizes (log2)
system.mem_ctrls0.writePktSize::5                   0                       # Write request sizes (log2)
system.mem_ctrls0.writePktSize::6               62722                       # Write request sizes (log2)
system.mem_ctrls0.rdQLenPdf::0                 218799                       # What read queue length does an incoming req see
system.mem_ctrls0.rdQLenPdf::1                    840                       # What read queue length does an incoming req see
system.mem_ctrls0.rdQLenPdf::2                    114                       # What read queue length does an incoming req see
system.mem_ctrls0.rdQLenPdf::3                     30                       # What read queue length does an incoming req see
system.mem_ctrls0.rdQLenPdf::4                     15                       # What read queue length does an incoming req see
system.mem_ctrls0.rdQLenPdf::5                      9                       # What read queue length does an incoming req see
system.mem_ctrls0.rdQLenPdf::6                      3                       # What read queue length does an incoming req see
system.mem_ctrls0.rdQLenPdf::7                      3                       # What read queue length does an incoming req see
system.mem_ctrls0.rdQLenPdf::8                      3                       # What read queue length does an incoming req see
system.mem_ctrls0.rdQLenPdf::9                      3                       # What read queue length does an incoming req see
system.mem_ctrls0.rdQLenPdf::10                     1                       # What read queue length does an incoming req see
system.mem_ctrls0.rdQLenPdf::11                     1                       # What read queue length does an incoming req see
system.mem_ctrls0.rdQLenPdf::12                     1                       # What read queue length does an incoming req see
system.mem_ctrls0.rdQLenPdf::13                     0                       # What read queue length does an incoming req see
system.mem_ctrls0.rdQLenPdf::14                     0                       # What read queue length does an incoming req see
system.mem_ctrls0.rdQLenPdf::15                     0                       # What read queue length does an incoming req see
system.mem_ctrls0.rdQLenPdf::16                     0                       # What read queue length does an incoming req see
system.mem_ctrls0.rdQLenPdf::17                     0                       # What read queue length does an incoming req see
system.mem_ctrls0.rdQLenPdf::18                     0                       # What read queue length does an incoming req see
system.mem_ctrls0.rdQLenPdf::19                     0                       # What read queue length does an incoming req see
system.mem_ctrls0.rdQLenPdf::20                     0                       # What read queue length does an incoming req see
system.mem_ctrls0.rdQLenPdf::21                     0                       # What read queue length does an incoming req see
system.mem_ctrls0.rdQLenPdf::22                     0                       # What read queue length does an incoming req see
system.mem_ctrls0.rdQLenPdf::23                     0                       # What read queue length does an incoming req see
system.mem_ctrls0.rdQLenPdf::24                     0                       # What read queue length does an incoming req see
system.mem_ctrls0.rdQLenPdf::25                     0                       # What read queue length does an incoming req see
system.mem_ctrls0.rdQLenPdf::26                     0                       # What read queue length does an incoming req see
system.mem_ctrls0.rdQLenPdf::27                     0                       # What read queue length does an incoming req see
system.mem_ctrls0.rdQLenPdf::28                     0                       # What read queue length does an incoming req see
system.mem_ctrls0.rdQLenPdf::29                     0                       # What read queue length does an incoming req see
system.mem_ctrls0.rdQLenPdf::30                     0                       # What read queue length does an incoming req see
system.mem_ctrls0.rdQLenPdf::31                     0                       # What read queue length does an incoming req see
system.mem_ctrls0.wrQLenPdf::0                  12513                       # What write queue length does an incoming req see
system.mem_ctrls0.wrQLenPdf::1                  12544                       # What write queue length does an incoming req see
system.mem_ctrls0.wrQLenPdf::2                  12551                       # What write queue length does an incoming req see
system.mem_ctrls0.wrQLenPdf::3                  12541                       # What write queue length does an incoming req see
system.mem_ctrls0.wrQLenPdf::4                  12527                       # What write queue length does an incoming req see
system.mem_ctrls0.wrQLenPdf::5                     40                       # What write queue length does an incoming req see
system.mem_ctrls0.wrQLenPdf::6                      4                       # What write queue length does an incoming req see
system.mem_ctrls0.wrQLenPdf::7                      2                       # What write queue length does an incoming req see
system.mem_ctrls0.bytesPerActivate::samples        63609                       # Bytes accessed per row activation
system.mem_ctrls0.bytesPerActivate::mean   284.266692                       # Bytes accessed per row activation
system.mem_ctrls0.bytesPerActivate::gmean   189.914909                       # Bytes accessed per row activation
system.mem_ctrls0.bytesPerActivate::stdev   277.298144                       # Bytes accessed per row activation
system.mem_ctrls0.bytesPerActivate::0-127        17826     28.02%     28.02% # Bytes accessed per row activation
system.mem_ctrls0.bytesPerActivate::128-255        16875     26.53%     54.55% # Bytes accessed per row activation
system.mem_ctrls0.bytesPerActivate::256-383        16410     25.80%     80.35% # Bytes accessed per row activation
system.mem_ctrls0.bytesPerActivate::384-511         2570      4.04%     84.39% # Bytes accessed per row activation
system.mem_ctrls0.bytesPerActivate::512-639         1797      2.83%     87.22% # Bytes accessed per row activation
system.mem_ctrls0.bytesPerActivate::640-767         1253      1.97%     89.19% # Bytes accessed per row activation
system.mem_ctrls0.bytesPerActivate::768-895         1079      1.70%     90.88% # Bytes accessed per row activation
system.mem_ctrls0.bytesPerActivate::896-1023          902      1.42%     92.30% # Bytes accessed per row activation
system.mem_ctrls0.bytesPerActivate::1024-1151         4897      7.70%    100.00% # Bytes accessed per row activation
system.mem_ctrls0.bytesPerActivate::total        63609                       # Bytes accessed per row activation
system.mem_ctrls0.rdPerTurnAround::samples        12512                       # Reads before turning the bus around for writes
system.mem_ctrls0.rdPerTurnAround::mean     17.397938                       # Reads before turning the bus around for writes
system.mem_ctrls0.rdPerTurnAround::stdev    86.893731                       # Reads before turning the bus around for writes
system.mem_ctrls0.rdPerTurnAround::0-127        12203     97.53%     97.53% # Reads before turning the bus around for writes
system.mem_ctrls0.rdPerTurnAround::128-255           67      0.54%     98.07% # Reads before turning the bus around for writes
system.mem_ctrls0.rdPerTurnAround::256-383           54      0.43%     98.50% # Reads before turning the bus around for writes
system.mem_ctrls0.rdPerTurnAround::384-511           37      0.30%     98.79% # Reads before turning the bus around for writes
system.mem_ctrls0.rdPerTurnAround::512-639          136      1.09%     99.88% # Reads before turning the bus around for writes
system.mem_ctrls0.rdPerTurnAround::640-767            2      0.02%     99.90% # Reads before turning the bus around for writes
system.mem_ctrls0.rdPerTurnAround::768-895            1      0.01%     99.90% # Reads before turning the bus around for writes
system.mem_ctrls0.rdPerTurnAround::896-1023            2      0.02%     99.92% # Reads before turning the bus around for writes
system.mem_ctrls0.rdPerTurnAround::1024-1151            1      0.01%     99.93% # Reads before turning the bus around for writes
system.mem_ctrls0.rdPerTurnAround::1152-1279            2      0.02%     99.94% # Reads before turning the bus around for writes
system.mem_ctrls0.rdPerTurnAround::1408-1535            2      0.02%     99.96% # Reads before turning the bus around for writes
system.mem_ctrls0.rdPerTurnAround::1536-1663            3      0.02%     99.98% # Reads before turning the bus around for writes
system.mem_ctrls0.rdPerTurnAround::1792-1919            1      0.01%     99.99% # Reads before turning the bus around for writes
system.mem_ctrls0.rdPerTurnAround::3968-4095            1      0.01%    100.00% # Reads before turning the bus around for writes
system.mem_ctrls0.rdPerTurnAround::total        12512                       # Reads before turning the bus around for writes
system.mem_ctrls0.wrPerTurnAround::samples        12512                       # Writes before turning the bus around for reads
system.mem_ctrls0.wrPerTurnAround::mean      5.012788                       # Writes before turning the bus around for reads
system.mem_ctrls0.wrPerTurnAround::gmean     5.010539                       # Writes before turning the bus around for reads
system.mem_ctrls0.wrPerTurnAround::stdev     0.187524                       # Writes before turning the bus around for reads
system.mem_ctrls0.wrPerTurnAround::4-5          12404     99.14%     99.14% # Writes before turning the bus around for reads
system.mem_ctrls0.wrPerTurnAround::6-7             99      0.79%     99.93% # Writes before turning the bus around for reads
system.mem_ctrls0.wrPerTurnAround::8-9              3      0.02%     99.95% # Writes before turning the bus around for reads
system.mem_ctrls0.wrPerTurnAround::10-11            3      0.02%     99.98% # Writes before turning the bus around for reads
system.mem_ctrls0.wrPerTurnAround::12-13            2      0.02%     99.99% # Writes before turning the bus around for reads
system.mem_ctrls0.wrPerTurnAround::14-15            1      0.01%    100.00% # Writes before turning the bus around for reads
system.mem_ctrls0.wrPerTurnAround::total        12512                       # Writes before turning the bus around for reads
system.mem_ctrls0.totQLat                  1474594250                       # Total ticks spent queuing
system.mem_ctrls0.totMemAccLat             5596256750                       # Total ticks spent from burst creation until serviced by the DRAM
system.mem_ctrls0.totBusLat                1099110000                       # Total ticks spent in databus transfers
system.mem_ctrls0.avgQLat                     6708.13                       # Average queueing delay per DRAM burst
system.mem_ctrls0.avgBusLat                   5000.00                       # Average bus latency per DRAM burst
system.mem_ctrls0.avgMemAccLat               25458.13                       # Average memory access latency per DRAM burst
system.mem_ctrls0.avgRdBW                      113.36                       # Average DRAM read bandwidth in MiByte/s
system.mem_ctrls0.avgWrBW                       32.34                       # Average achieved write bandwidth in MiByte/s
system.mem_ctrls0.avgRdBWSys                   113.38                       # Average system read bandwidth in MiByte/s
system.mem_ctrls0.avgWrBWSys                    32.35                       # Average system write bandwidth in MiByte/s
system.mem_ctrls0.peakBW                     12800.00                       # Theoretical peak bandwidth in MiByte/s
system.mem_ctrls0.busUtil                        1.14                       # Data bus utilization in percentage
system.mem_ctrls0.busUtilRead                    0.89                       # Data bus utilization in percentage for reads
system.mem_ctrls0.busUtilWrite                   0.25                       # Data bus utilization in percentage for writes
system.mem_ctrls0.avgRdQLen                      1.01                       # Average read queue length when enqueuing
system.mem_ctrls0.avgWrQLen                      2.95                       # Average write queue length when enqueuing
system.mem_ctrls0.readRowHits                  177030                       # Number of row buffer hits during reads
system.mem_ctrls0.writeRowHits                  41895                       # Number of row buffer hits during writes
system.mem_ctrls0.readRowHitRate                80.53                       # Row buffer hit rate for reads
system.mem_ctrls0.writeRowHitRate               66.79                       # Row buffer hit rate for writes
system.mem_ctrls0.avgGap                    439176.90                       # Average gap between requests
system.mem_ctrls0.pageHitRate                   77.48                       # Row buffer hit rate, read and write combined
system.mem_ctrls0.memoryStateTime::IDLE   14842071250                       # Time in different power states
system.mem_ctrls0.memoryStateTime::REF     4143880000                       # Time in different power states
system.mem_ctrls0.memoryStateTime::PRE_PDN            0                       # Time in different power states
system.mem_ctrls0.memoryStateTime::ACT   105111846750                       # Time in different power states
system.mem_ctrls0.memoryStateTime::ACT_PDN            0                       # Time in different power states
system.mem_ctrls0.actEnergy::0              246146040                       # Energy for activate commands per rank (pJ)
system.mem_ctrls0.actEnergy::1              234707760                       # Energy for activate commands per rank (pJ)
system.mem_ctrls0.preEnergy::0              134305875                       # Energy for precharge commands per rank (pJ)
system.mem_ctrls0.preEnergy::1              128064750                       # Energy for precharge commands per rank (pJ)
system.mem_ctrls0.readEnergy::0             864583200                       # Energy for read commands per rank (pJ)
system.mem_ctrls0.readEnergy::1             849895800                       # Energy for read commands per rank (pJ)
system.mem_ctrls0.writeEnergy::0            205992720                       # Energy for write commands per rank (pJ)
system.mem_ctrls0.writeEnergy::1            200432880                       # Energy for write commands per rank (pJ)
system.mem_ctrls0.refreshEnergy::0         8105429280                       # Energy for refresh commands per rank (pJ)
system.mem_ctrls0.refreshEnergy::1         8105429280                       # Energy for refresh commands per rank (pJ)
system.mem_ctrls0.actBackEnergy::0        47807990190                       # Energy for active background per rank (pJ)
system.mem_ctrls0.actBackEnergy::1        46942769520                       # Energy for active background per rank (pJ)
system.mem_ctrls0.preBackEnergy::0        32521674000                       # Energy for precharge background per rank (pJ)
system.mem_ctrls0.preBackEnergy::1        33280639500                       # Energy for precharge background per rank (pJ)
system.mem_ctrls0.totalEnergy::0          89886121305                       # Total energy per rank (pJ)
system.mem_ctrls0.totalEnergy::1          89741939490                       # Total energy per rank (pJ)
system.mem_ctrls0.averagePower::0          724.318477                       # Core power per rank (mW)
system.mem_ctrls0.averagePower::1          723.156635                       # Core power per rank (mW)
system.mem_ctrls1.bytes_read::ruby.dir_cntrl1     13890368                       # Number of bytes read from this memory
system.mem_ctrls1.bytes_read::total          13890368                       # Number of bytes read from this memory
system.mem_ctrls1.bytes_written::ruby.dir_cntrl1      3845760                       # Number of bytes written to this memory
system.mem_ctrls1.bytes_written::total        3845760                       # Number of bytes written to this memory
system.mem_ctrls1.num_reads::ruby.dir_cntrl1       217037                       # Number of read requests responded to by this memory
system.mem_ctrls1.num_reads::total             217037                       # Number of read requests responded to by this memory
system.mem_ctrls1.num_writes::ruby.dir_cntrl1        60090                       # Number of write requests responded to by this memory
system.mem_ctrls1.num_writes::total             60090                       # Number of write requests responded to by this memory
system.mem_ctrls1.bw_read::ruby.dir_cntrl1    111925244                       # Total read bandwidth from this memory (bytes/s)
system.mem_ctrls1.bw_read::total            111925244                       # Total read bandwidth from this memory (bytes/s)
system.mem_ctrls1.bw_write::ruby.dir_cntrl1     30988209                       # Write bandwidth from this memory (bytes/s)
system.mem_ctrls1.bw_write::total            30988209                       # Write bandwidth from this memory (bytes/s)
system.mem_ctrls1.bw_total::ruby.dir_cntrl1    142913453                       # Total bandwidth to/from this memory (bytes/s)
system.mem_ctrls1.bw_total::total           142913453                       # Total bandwidth to/from this memory (bytes/s)
system.mem_ctrls1.readReqs                     217037                       # Number of read requests accepted
system.mem_ctrls1.writeReqs                     60090                       # Number of write requests accepted
system.mem_ctrls1.readBursts                   217037                       # Number of DRAM read bursts, including those serviced by the write queue
system.mem_ctrls1.writeBursts                   60090                       # Number of DRAM write bursts, including those merged in the write queue
system.mem_ctrls1.bytesReadDRAM              13888576                       # Total number of bytes read from DRAM
system.mem_ctrls1.bytesReadWrQ                   1792                       # Total number of bytes read from write queue
system.mem_ctrls1.bytesWritten                3845632                       # Total number of bytes written to DRAM
system.mem_ctrls1.bytesReadSys               13890368                       # Total read bytes from the system interface side
system.mem_ctrls1.bytesWrittenSys             3845760                       # Total written bytes from the system interface side
system.mem_ctrls1.servicedByWrQ                    28                       # Number of DRAM read bursts serviced by the write queue
system.mem_ctrls1.mergedWrBursts                    0                       # Number of DRAM write bursts merged with an existing one
system.mem_ctrls1.neitherReadNorWriteReqs            0                       # Number of requests that are neither read nor write
system.mem_ctrls1.perBankRdBursts::0            13293                       # Per bank write bursts
system.mem_ctrls1.perBankRdBursts::1            13925                       # Per bank write bursts
system.mem_ctrls1.perBankRdBursts::2            13600                       # Per bank write bursts
system.mem_ctrls1.perBankRdBursts::3            13893                       # Per bank write bursts
system.mem_ctrls1.perBankRdBursts::4            13586                       # Per bank write bursts
system.mem_ctrls1.perBankRdBursts::5            14132                       # Per bank write bursts
system.mem_ctrls1.perBankRdBursts::6            13593                       # Per bank write bursts
system.mem_ctrls1.perBankRdBursts::7            13540                       # Per bank write bursts
system.mem_ctrls1.perBankRdBursts::8            13495                       # Per bank write bursts
system.mem_ctrls1.perBankRdBursts::9            13747                       # Per bank write bursts
system.mem_ctrls1.perBankRdBursts::10           13470                       # Per bank write bursts
system.mem_ctrls1.perBankRdBursts::11           13660                       # Per bank write bursts
system.mem_ctrls1.perBankRdBursts::12           13211                       # Per bank write bursts
system.mem_ctrls1.perBankRdBursts::13           13133                       # Per bank write bursts
system.mem_ctrls1.perBankRdBursts::14           13297                       # Per bank write bursts
system.mem_ctrls1.perBankRdBursts::15           13434                       # Per bank write bursts
system.mem_ctrls1.perBankWrBursts::0             3696                       # Per bank write bursts
system.mem_ctrls1.perBankWrBursts::1             3783                       # Per bank write bursts
system.mem_ctrls1.perBankWrBursts::2             3808                       # Per bank write bursts
system.mem_ctrls1.perBankWrBursts::3             3979                       # Per bank write bursts
system.mem_ctrls1.perBankWrBursts::4             3767                       # Per bank write bursts
system.mem_ctrls1.perBankWrBursts::5             3928                       # Per bank write bursts
system.mem_ctrls1.perBankWrBursts::6             3807                       # Per bank write bursts
system.mem_ctrls1.perBankWrBursts::7             3791                       # Per bank write bursts
system.mem_ctrls1.perBankWrBursts::8             3663                       # Per bank write bursts
system.mem_ctrls1.perBankWrBursts::9             3896                       # Per bank write bursts
system.mem_ctrls1.perBankWrBursts::10            3683                       # Per bank write bursts
system.mem_ctrls1.perBankWrBursts::11            3615                       # Per bank write bursts
system.mem_ctrls1.perBankWrBursts::12            3566                       # Per bank write bursts
system.mem_ctrls1.perBankWrBursts::13            3597                       # Per bank write bursts
system.mem_ctrls1.perBankWrBursts::14            3797                       # Per bank write bursts
system.mem_ctrls1.perBankWrBursts::15            3712                       # Per bank write bursts
system.mem_ctrls1.numRdRetry                        0                       # Number of times read queue was full causing retry
system.mem_ctrls1.numWrRetry                        2                       # Number of times write queue was full causing retry
system.mem_ctrls1.totGap                 124103227500                       # Total gap between requests
system.mem_ctrls1.readPktSize::0                    0                       # Read request sizes (log2)
system.mem_ctrls1.readPktSize::1                    0                       # Read request sizes (log2)
system.mem_ctrls1.readPktSize::2                    0                       # Read request sizes (log2)
system.mem_ctrls1.readPktSize::3                    0                       # Read request sizes (log2)
system.mem_ctrls1.readPktSize::4                    0                       # Read request sizes (log2)
system.mem_ctrls1.readPktSize::5                    0                       # Read request sizes (log2)
system.mem_ctrls1.readPktSize::6               217037                       # Read request sizes (log2)
system.mem_ctrls1.writePktSize::0                   0                       # Write request sizes (log2)
system.mem_ctrls1.writePktSize::1                   0                       # Write request sizes (log2)
system.mem_ctrls1.writePktSize::2                   0                       # Write request sizes (log2)
system.mem_ctrls1.writePktSize::3                   0                       # Write request sizes (log2)
system.mem_ctrls1.writePktSize::4                   0                       # Write request sizes (log2)
system.mem_ctrls1.writePktSize::5                   0                       # Write request sizes (log2)
system.mem_ctrls1.writePktSize::6               60090                       # Write request sizes (log2)
system.mem_ctrls1.rdQLenPdf::0                 215857                       # What read queue length does an incoming req see
system.mem_ctrls1.rdQLenPdf::1                   1005                       # What read queue length does an incoming req see
system.mem_ctrls1.rdQLenPdf::2                     96                       # What read queue length does an incoming req see
system.mem_ctrls1.rdQLenPdf::3                     21                       # What read queue length does an incoming req see
system.mem_ctrls1.rdQLenPdf::4                      8                       # What read queue length does an incoming req see
system.mem_ctrls1.rdQLenPdf::5                      5                       # What read queue length does an incoming req see
system.mem_ctrls1.rdQLenPdf::6                      5                       # What read queue length does an incoming req see
system.mem_ctrls1.rdQLenPdf::7                      4                       # What read queue length does an incoming req see
system.mem_ctrls1.rdQLenPdf::8                      2                       # What read queue length does an incoming req see
system.mem_ctrls1.rdQLenPdf::9                      1                       # What read queue length does an incoming req see
system.mem_ctrls1.rdQLenPdf::10                     1                       # What read queue length does an incoming req see
system.mem_ctrls1.rdQLenPdf::11                     3                       # What read queue length does an incoming req see
system.mem_ctrls1.rdQLenPdf::12                     1                       # What read queue length does an incoming req see
system.mem_ctrls1.rdQLenPdf::13                     0                       # What read queue length does an incoming req see
system.mem_ctrls1.rdQLenPdf::14                     0                       # What read queue length does an incoming req see
system.mem_ctrls1.rdQLenPdf::15                     0                       # What read queue length does an incoming req see
system.mem_ctrls1.rdQLenPdf::16                     0                       # What read queue length does an incoming req see
system.mem_ctrls1.rdQLenPdf::17                     0                       # What read queue length does an incoming req see
system.mem_ctrls1.rdQLenPdf::18                     0                       # What read queue length does an incoming req see
system.mem_ctrls1.rdQLenPdf::19                     0                       # What read queue length does an incoming req see
system.mem_ctrls1.rdQLenPdf::20                     0                       # What read queue length does an incoming req see
system.mem_ctrls1.rdQLenPdf::21                     0                       # What read queue length does an incoming req see
system.mem_ctrls1.rdQLenPdf::22                     0                       # What read queue length does an incoming req see
system.mem_ctrls1.rdQLenPdf::23                     0                       # What read queue length does an incoming req see
system.mem_ctrls1.rdQLenPdf::24                     0                       # What read queue length does an incoming req see
system.mem_ctrls1.rdQLenPdf::25                     0                       # What read queue length does an incoming req see
system.mem_ctrls1.rdQLenPdf::26                     0                       # What read queue length does an incoming req see
system.mem_ctrls1.rdQLenPdf::27                     0                       # What read queue length does an incoming req see
system.mem_ctrls1.rdQLenPdf::28                     0                       # What read queue length does an incoming req see
system.mem_ctrls1.rdQLenPdf::29                     0                       # What read queue length does an incoming req see
system.mem_ctrls1.rdQLenPdf::30                     0                       # What read queue length does an incoming req see
system.mem_ctrls1.rdQLenPdf::31                     0                       # What read queue length does an incoming req see
system.mem_ctrls1.wrQLenPdf::0                  11989                       # What write queue length does an incoming req see
system.mem_ctrls1.wrQLenPdf::1                  12019                       # What write queue length does an incoming req see
system.mem_ctrls1.wrQLenPdf::2                  12025                       # What write queue length does an incoming req see
system.mem_ctrls1.wrQLenPdf::3                  12018                       # What write queue length does an incoming req see
system.mem_ctrls1.wrQLenPdf::4                  11998                       # What write queue length does an incoming req see
system.mem_ctrls1.wrQLenPdf::5                     33                       # What write queue length does an incoming req see
system.mem_ctrls1.wrQLenPdf::6                      3                       # What write queue length does an incoming req see
system.mem_ctrls1.wrQLenPdf::7                      5                       # What write queue length does an incoming req see
system.mem_ctrls1.bytesPerActivate::samples        58572                       # Bytes accessed per row activation
system.mem_ctrls1.bytesPerActivate::mean   302.757632                       # Bytes accessed per row activation
system.mem_ctrls1.bytesPerActivate::gmean   206.107329                       # Bytes accessed per row activation
system.mem_ctrls1.bytesPerActivate::stdev   283.290351                       # Bytes accessed per row activation
system.mem_ctrls1.bytesPerActivate::0-127        13557     23.15%     23.15% # Bytes accessed per row activation
system.mem_ctrls1.bytesPerActivate::128-255        16332     27.88%     51.03% # Bytes accessed per row activation
system.mem_ctrls1.bytesPerActivate::256-383        16081     27.46%     78.48% # Bytes accessed per row activation
system.mem_ctrls1.bytesPerActivate::384-511         2621      4.47%     82.96% # Bytes accessed per row activation
system.mem_ctrls1.bytesPerActivate::512-639         1760      3.00%     85.96% # Bytes accessed per row activation
system.mem_ctrls1.bytesPerActivate::640-767         1293      2.21%     88.17% # Bytes accessed per row activation
system.mem_ctrls1.bytesPerActivate::768-895         1031      1.76%     89.93% # Bytes accessed per row activation
system.mem_ctrls1.bytesPerActivate::896-1023          924      1.58%     91.51% # Bytes accessed per row activation
system.mem_ctrls1.bytesPerActivate::1024-1151         4973      8.49%    100.00% # Bytes accessed per row activation
system.mem_ctrls1.bytesPerActivate::total        58572                       # Bytes accessed per row activation
system.mem_ctrls1.rdPerTurnAround::samples        11988                       # Reads before turning the bus around for writes
system.mem_ctrls1.rdPerTurnAround::mean     17.924007                       # Reads before turning the bus around for writes
system.mem_ctrls1.rdPerTurnAround::stdev    88.134887                       # Reads before turning the bus around for writes
system.mem_ctrls1.rdPerTurnAround::0-127        11692     97.53%     97.53% # Reads before turning the bus around for writes
system.mem_ctrls1.rdPerTurnAround::128-255           59      0.49%     98.02% # Reads before turning the bus around for writes
system.mem_ctrls1.rdPerTurnAround::256-383           43      0.36%     98.38% # Reads before turning the bus around for writes
system.mem_ctrls1.rdPerTurnAround::384-511           31      0.26%     98.64% # Reads before turning the bus around for writes
system.mem_ctrls1.rdPerTurnAround::512-639          147      1.23%     99.87% # Reads before turning the bus around for writes
system.mem_ctrls1.rdPerTurnAround::640-767            1      0.01%     99.87% # Reads before turning the bus around for writes
system.mem_ctrls1.rdPerTurnAround::768-895            2      0.02%     99.89% # Reads before turning the bus around for writes
system.mem_ctrls1.rdPerTurnAround::1024-1151            3      0.03%     99.92% # Reads before turning the bus around for writes
system.mem_ctrls1.rdPerTurnAround::1152-1279            2      0.02%     99.93% # Reads before turning the bus around for writes
system.mem_ctrls1.rdPerTurnAround::1408-1535            4      0.03%     99.97% # Reads before turning the bus around for writes
system.mem_ctrls1.rdPerTurnAround::1664-1791            1      0.01%     99.97% # Reads before turning the bus around for writes
system.mem_ctrls1.rdPerTurnAround::1792-1919            1      0.01%     99.98% # Reads before turning the bus around for writes
system.mem_ctrls1.rdPerTurnAround::2304-2431            1      0.01%     99.99% # Reads before turning the bus around for writes
system.mem_ctrls1.rdPerTurnAround::2816-2943            1      0.01%    100.00% # Reads before turning the bus around for writes
system.mem_ctrls1.rdPerTurnAround::total        11988                       # Reads before turning the bus around for writes
system.mem_ctrls1.wrPerTurnAround::samples        11988                       # Writes before turning the bus around for reads
system.mem_ctrls1.wrPerTurnAround::mean      5.012346                       # Writes before turning the bus around for reads
system.mem_ctrls1.wrPerTurnAround::gmean     5.010466                       # Writes before turning the bus around for reads
system.mem_ctrls1.wrPerTurnAround::stdev     0.165461                       # Writes before turning the bus around for reads
system.mem_ctrls1.wrPerTurnAround::4-5          11876     99.07%     99.07% # Writes before turning the bus around for reads
system.mem_ctrls1.wrPerTurnAround::6-7            105      0.88%     99.94% # Writes before turning the bus around for reads
system.mem_ctrls1.wrPerTurnAround::8-9              2      0.02%     99.96% # Writes before turning the bus around for reads
system.mem_ctrls1.wrPerTurnAround::10-11            4      0.03%     99.99% # Writes before turning the bus around for reads
system.mem_ctrls1.wrPerTurnAround::12-13            1      0.01%    100.00% # Writes before turning the bus around for reads
system.mem_ctrls1.wrPerTurnAround::total        11988                       # Writes before turning the bus around for reads
system.mem_ctrls1.totQLat                  1382148000                       # Total ticks spent queuing
system.mem_ctrls1.totMemAccLat             5451066750                       # Total ticks spent from burst creation until serviced by the DRAM
system.mem_ctrls1.totBusLat                1085045000                       # Total ticks spent in databus transfers
system.mem_ctrls1.avgQLat                     6369.08                       # Average queueing delay per DRAM burst
system.mem_ctrls1.avgBusLat                   5000.00                       # Average bus latency per DRAM burst
system.mem_ctrls1.avgMemAccLat               25119.08                       # Average memory access latency per DRAM burst
system.mem_ctrls1.avgRdBW                      111.91                       # Average DRAM read bandwidth in MiByte/s
system.mem_ctrls1.avgWrBW                       30.99                       # Average achieved write bandwidth in MiByte/s
system.mem_ctrls1.avgRdBWSys                   111.93                       # Average system read bandwidth in MiByte/s
system.mem_ctrls1.avgWrBWSys                    30.99                       # Average system write bandwidth in MiByte/s
system.mem_ctrls1.peakBW                     12800.00                       # Theoretical peak bandwidth in MiByte/s
system.mem_ctrls1.busUtil                        1.12                       # Data bus utilization in percentage
system.mem_ctrls1.busUtilRead                    0.87                       # Data bus utilization in percentage for reads
system.mem_ctrls1.busUtilWrite                   0.24                       # Data bus utilization in percentage for writes
system.mem_ctrls1.avgRdQLen                      1.00                       # Average read queue length when enqueuing
system.mem_ctrls1.avgWrQLen                      2.99                       # Average write queue length when enqueuing
system.mem_ctrls1.readRowHits                  176463                       # Number of row buffer hits during reads
system.mem_ctrls1.writeRowHits                  42054                       # Number of row buffer hits during writes
system.mem_ctrls1.readRowHitRate                81.32                       # Row buffer hit rate for reads
system.mem_ctrls1.writeRowHitRate               69.99                       # Row buffer hit rate for writes
system.mem_ctrls1.avgGap                    447820.77                       # Average gap between requests
system.mem_ctrls1.pageHitRate                   78.86                       # Row buffer hit rate, read and write combined
system.mem_ctrls1.memoryStateTime::IDLE   15198161000                       # Time in different power states
system.mem_ctrls1.memoryStateTime::REF     4143880000                       # Time in different power states
system.mem_ctrls1.memoryStateTime::PRE_PDN            0                       # Time in different power states
system.mem_ctrls1.memoryStateTime::ACT   104755887500                       # Time in different power states
system.mem_ctrls1.memoryStateTime::ACT_PDN            0                       # Time in different power states
system.mem_ctrls1.actEnergy::0              228206160                       # Energy for activate commands per rank (pJ)
system.mem_ctrls1.actEnergy::1              214590600                       # Energy for activate commands per rank (pJ)
system.mem_ctrls1.preEnergy::0              124517250                       # Energy for precharge commands per rank (pJ)
system.mem_ctrls1.preEnergy::1              117088125                       # Energy for precharge commands per rank (pJ)
system.mem_ctrls1.readEnergy::0             854482200                       # Energy for read commands per rank (pJ)
system.mem_ctrls1.readEnergy::1             838047600                       # Energy for read commands per rank (pJ)
system.mem_ctrls1.writeEnergy::0            198022320                       # Energy for write commands per rank (pJ)
system.mem_ctrls1.writeEnergy::1            191347920                       # Energy for write commands per rank (pJ)
system.mem_ctrls1.refreshEnergy::0         8105429280                       # Energy for refresh commands per rank (pJ)
system.mem_ctrls1.refreshEnergy::1         8105429280                       # Energy for refresh commands per rank (pJ)
system.mem_ctrls1.actBackEnergy::0        47247113610                       # Energy for active background per rank (pJ)
system.mem_ctrls1.actBackEnergy::1        46071895590                       # Energy for active background per rank (pJ)
system.mem_ctrls1.preBackEnergy::0        33013671000                       # Energy for precharge background per rank (pJ)
system.mem_ctrls1.preBackEnergy::1        34044564000                       # Energy for precharge background per rank (pJ)
system.mem_ctrls1.totalEnergy::0          89771441820                       # Total energy per rank (pJ)
system.mem_ctrls1.totalEnergy::1          89582963115                       # Total energy per rank (pJ)
system.mem_ctrls1.averagePower::0          723.394370                       # Core power per rank (mW)
system.mem_ctrls1.averagePower::1          721.875574                       # Core power per rank (mW)
system.mem_ctrls2.bytes_read::ruby.dir_cntrl2     13891712                       # Number of bytes read from this memory
system.mem_ctrls2.bytes_read::total          13891712                       # Number of bytes read from this memory
system.mem_ctrls2.bytes_written::ruby.dir_cntrl2      3850240                       # Number of bytes written to this memory
system.mem_ctrls2.bytes_written::total        3850240                       # Number of bytes written to this memory
system.mem_ctrls2.num_reads::ruby.dir_cntrl2       217058                       # Number of read requests responded to by this memory
system.mem_ctrls2.num_reads::total             217058                       # Number of read requests responded to by this memory
system.mem_ctrls2.num_writes::ruby.dir_cntrl2        60160                       # Number of write requests responded to by this memory
system.mem_ctrls2.num_writes::total             60160                       # Number of write requests responded to by this memory
system.mem_ctrls2.bw_read::ruby.dir_cntrl2    111936073                       # Total read bandwidth from this memory (bytes/s)
system.mem_ctrls2.bw_read::total            111936073                       # Total read bandwidth from this memory (bytes/s)
system.mem_ctrls2.bw_write::ruby.dir_cntrl2     31024308                       # Write bandwidth from this memory (bytes/s)
system.mem_ctrls2.bw_write::total            31024308                       # Write bandwidth from this memory (bytes/s)
system.mem_ctrls2.bw_total::ruby.dir_cntrl2    142960381                       # Total bandwidth to/from this memory (bytes/s)
system.mem_ctrls2.bw_total::total           142960381                       # Total bandwidth to/from this memory (bytes/s)
system.mem_ctrls2.readReqs                     217058                       # Number of read requests accepted
system.mem_ctrls2.writeReqs                     60160                       # Number of write requests accepted
system.mem_ctrls2.readBursts                   217058                       # Number of DRAM read bursts, including those serviced by the write queue
system.mem_ctrls2.writeBursts                   60160                       # Number of DRAM write bursts, including those merged in the write queue
system.mem_ctrls2.bytesReadDRAM              13890112                       # Total number of bytes read from DRAM
system.mem_ctrls2.bytesReadWrQ                   1600                       # Total number of bytes read from write queue
system.mem_ctrls2.bytesWritten                3849984                       # Total number of bytes written to DRAM
system.mem_ctrls2.bytesReadSys               13891712                       # Total read bytes from the system interface side
system.mem_ctrls2.bytesWrittenSys             3850240                       # Total written bytes from the system interface side
system.mem_ctrls2.servicedByWrQ                    25                       # Number of DRAM read bursts serviced by the write queue
system.mem_ctrls2.mergedWrBursts                    0                       # Number of DRAM write bursts merged with an existing one
system.mem_ctrls2.neitherReadNorWriteReqs            0                       # Number of requests that are neither read nor write
system.mem_ctrls2.perBankRdBursts::0            13291                       # Per bank write bursts
system.mem_ctrls2.perBankRdBursts::1            13923                       # Per bank write bursts
system.mem_ctrls2.perBankRdBursts::2            13623                       # Per bank write bursts
system.mem_ctrls2.perBankRdBursts::3            13919                       # Per bank write bursts
system.mem_ctrls2.perBankRdBursts::4            13582                       # Per bank write bursts
system.mem_ctrls2.perBankRdBursts::5            14118                       # Per bank write bursts
system.mem_ctrls2.perBankRdBursts::6            13536                       # Per bank write bursts
system.mem_ctrls2.perBankRdBursts::7            13556                       # Per bank write bursts
system.mem_ctrls2.perBankRdBursts::8            13490                       # Per bank write bursts
system.mem_ctrls2.perBankRdBursts::9            13738                       # Per bank write bursts
system.mem_ctrls2.perBankRdBursts::10           13478                       # Per bank write bursts
system.mem_ctrls2.perBankRdBursts::11           13719                       # Per bank write bursts
system.mem_ctrls2.perBankRdBursts::12           13205                       # Per bank write bursts
system.mem_ctrls2.perBankRdBursts::13           13076                       # Per bank write bursts
system.mem_ctrls2.perBankRdBursts::14           13313                       # Per bank write bursts
system.mem_ctrls2.perBankRdBursts::15           13466                       # Per bank write bursts
system.mem_ctrls2.perBankWrBursts::0             3689                       # Per bank write bursts
system.mem_ctrls2.perBankWrBursts::1             3779                       # Per bank write bursts
system.mem_ctrls2.perBankWrBursts::2             3803                       # Per bank write bursts
system.mem_ctrls2.perBankWrBursts::3             3992                       # Per bank write bursts
system.mem_ctrls2.perBankWrBursts::4             3766                       # Per bank write bursts
system.mem_ctrls2.perBankWrBursts::5             3918                       # Per bank write bursts
system.mem_ctrls2.perBankWrBursts::6             3816                       # Per bank write bursts
system.mem_ctrls2.perBankWrBursts::7             3823                       # Per bank write bursts
system.mem_ctrls2.perBankWrBursts::8             3665                       # Per bank write bursts
system.mem_ctrls2.perBankWrBursts::9             3904                       # Per bank write bursts
system.mem_ctrls2.perBankWrBursts::10            3665                       # Per bank write bursts
system.mem_ctrls2.perBankWrBursts::11            3625                       # Per bank write bursts
system.mem_ctrls2.perBankWrBursts::12            3575                       # Per bank write bursts
system.mem_ctrls2.perBankWrBursts::13            3602                       # Per bank write bursts
system.mem_ctrls2.perBankWrBursts::14            3807                       # Per bank write bursts
system.mem_ctrls2.perBankWrBursts::15            3727                       # Per bank write bursts
system.mem_ctrls2.numRdRetry                        0                       # Number of times read queue was full causing retry
system.mem_ctrls2.numWrRetry                        0                       # Number of times write queue was full causing retry
system.mem_ctrls2.totGap                 124103260000                       # Total gap between requests
system.mem_ctrls2.readPktSize::0                    0                       # Read request sizes (log2)
system.mem_ctrls2.readPktSize::1                    0                       # Read request sizes (log2)
system.mem_ctrls2.readPktSize::2                    0                       # Read request sizes (log2)
system.mem_ctrls2.readPktSize::3                    0                       # Read request sizes (log2)
system.mem_ctrls2.readPktSize::4                    0                       # Read request sizes (log2)
system.mem_ctrls2.readPktSize::5                    0                       # Read request sizes (log2)
system.mem_ctrls2.readPktSize::6               217058                       # Read request sizes (log2)
system.mem_ctrls2.writePktSize::0                   0                       # Write request sizes (log2)
system.mem_ctrls2.writePktSize::1                   0                       # Write request sizes (log2)
system.mem_ctrls2.writePktSize::2                   0                       # Write request sizes (log2)
system.mem_ctrls2.writePktSize::3                   0                       # Write request sizes (log2)
system.mem_ctrls2.writePktSize::4                   0                       # Write request sizes (log2)
system.mem_ctrls2.writePktSize::5                   0                       # Write request sizes (log2)
system.mem_ctrls2.writePktSize::6               60160                       # Write request sizes (log2)
system.mem_ctrls2.rdQLenPdf::0                 216052                       # What read queue length does an incoming req see
system.mem_ctrls2.rdQLenPdf::1                    833                       # What read queue length does an incoming req see
system.mem_ctrls2.rdQLenPdf::2                     99                       # What read queue length does an incoming req see
system.mem_ctrls2.rdQLenPdf::3                     21                       # What read queue length does an incoming req see
system.mem_ctrls2.rdQLenPdf::4                     10                       # What read queue length does an incoming req see
system.mem_ctrls2.rdQLenPdf::5                      7                       # What read queue length does an incoming req see
system.mem_ctrls2.rdQLenPdf::6                      4                       # What read queue length does an incoming req see
system.mem_ctrls2.rdQLenPdf::7                      3                       # What read queue length does an incoming req see
system.mem_ctrls2.rdQLenPdf::8                      2                       # What read queue length does an incoming req see
system.mem_ctrls2.rdQLenPdf::9                      1                       # What read queue length does an incoming req see
system.mem_ctrls2.rdQLenPdf::10                     1                       # What read queue length does an incoming req see
system.mem_ctrls2.rdQLenPdf::11                     0                       # What read queue length does an incoming req see
system.mem_ctrls2.rdQLenPdf::12                     0                       # What read queue length does an incoming req see
system.mem_ctrls2.rdQLenPdf::13                     0                       # What read queue length does an incoming req see
system.mem_ctrls2.rdQLenPdf::14                     0                       # What read queue length does an incoming req see
system.mem_ctrls2.rdQLenPdf::15                     0                       # What read queue length does an incoming req see
system.mem_ctrls2.rdQLenPdf::16                     0                       # What read queue length does an incoming req see
system.mem_ctrls2.rdQLenPdf::17                     0                       # What read queue length does an incoming req see
system.mem_ctrls2.rdQLenPdf::18                     0                       # What read queue length does an incoming req see
system.mem_ctrls2.rdQLenPdf::19                     0                       # What read queue length does an incoming req see
system.mem_ctrls2.rdQLenPdf::20                     0                       # What read queue length does an incoming req see
system.mem_ctrls2.rdQLenPdf::21                     0                       # What read queue length does an incoming req see
system.mem_ctrls2.rdQLenPdf::22                     0                       # What read queue length does an incoming req see
system.mem_ctrls2.rdQLenPdf::23                     0                       # What read queue length does an incoming req see
system.mem_ctrls2.rdQLenPdf::24                     0                       # What read queue length does an incoming req see
system.mem_ctrls2.rdQLenPdf::25                     0                       # What read queue length does an incoming req see
system.mem_ctrls2.rdQLenPdf::26                     0                       # What read queue length does an incoming req see
system.mem_ctrls2.rdQLenPdf::27                     0                       # What read queue length does an incoming req see
system.mem_ctrls2.rdQLenPdf::28                     0                       # What read queue length does an incoming req see
system.mem_ctrls2.rdQLenPdf::29                     0                       # What read queue length does an incoming req see
system.mem_ctrls2.rdQLenPdf::30                     0                       # What read queue length does an incoming req see
system.mem_ctrls2.rdQLenPdf::31                     0                       # What read queue length does an incoming req see
system.mem_ctrls2.wrQLenPdf::0                  12007                       # What write queue length does an incoming req see
system.mem_ctrls2.wrQLenPdf::1                  12030                       # What write queue length does an incoming req see
system.mem_ctrls2.wrQLenPdf::2                  12033                       # What write queue length does an incoming req see
system.mem_ctrls2.wrQLenPdf::3                  12033                       # What write queue length does an incoming req see
system.mem_ctrls2.wrQLenPdf::4                  12019                       # What write queue length does an incoming req see
system.mem_ctrls2.wrQLenPdf::5                     33                       # What write queue length does an incoming req see
system.mem_ctrls2.wrQLenPdf::6                      4                       # What write queue length does an incoming req see
system.mem_ctrls2.wrQLenPdf::7                      1                       # What write queue length does an incoming req see
system.mem_ctrls2.bytesPerActivate::samples        58618                       # Bytes accessed per row activation
system.mem_ctrls2.bytesPerActivate::mean   302.620492                       # Bytes accessed per row activation
system.mem_ctrls2.bytesPerActivate::gmean   205.780720                       # Bytes accessed per row activation
system.mem_ctrls2.bytesPerActivate::stdev   283.213558                       # Bytes accessed per row activation
system.mem_ctrls2.bytesPerActivate::0-127        13737     23.43%     23.43% # Bytes accessed per row activation
system.mem_ctrls2.bytesPerActivate::128-255        15903     27.13%     50.56% # Bytes accessed per row activation
system.mem_ctrls2.bytesPerActivate::256-383        16305     27.82%     78.38% # Bytes accessed per row activation
system.mem_ctrls2.bytesPerActivate::384-511         2629      4.48%     82.87% # Bytes accessed per row activation
system.mem_ctrls2.bytesPerActivate::512-639         1850      3.16%     86.02% # Bytes accessed per row activation
system.mem_ctrls2.bytesPerActivate::640-767         1268      2.16%     88.18% # Bytes accessed per row activation
system.mem_ctrls2.bytesPerActivate::768-895         1023      1.75%     89.93% # Bytes accessed per row activation
system.mem_ctrls2.bytesPerActivate::896-1023          926      1.58%     91.51% # Bytes accessed per row activation
system.mem_ctrls2.bytesPerActivate::1024-1151         4977      8.49%    100.00% # Bytes accessed per row activation
system.mem_ctrls2.bytesPerActivate::total        58618                       # Bytes accessed per row activation
system.mem_ctrls2.rdPerTurnAround::samples        12006                       # Reads before turning the bus around for writes
system.mem_ctrls2.rdPerTurnAround::mean     17.951024                       # Reads before turning the bus around for writes
system.mem_ctrls2.rdPerTurnAround::stdev    87.771139                       # Reads before turning the bus around for writes
system.mem_ctrls2.rdPerTurnAround::0-127        11706     97.50%     97.50% # Reads before turning the bus around for writes
system.mem_ctrls2.rdPerTurnAround::128-255           67      0.56%     98.06% # Reads before turning the bus around for writes
system.mem_ctrls2.rdPerTurnAround::256-383           38      0.32%     98.38% # Reads before turning the bus around for writes
system.mem_ctrls2.rdPerTurnAround::384-511           35      0.29%     98.67% # Reads before turning the bus around for writes
system.mem_ctrls2.rdPerTurnAround::512-639          144      1.20%     99.87% # Reads before turning the bus around for writes
system.mem_ctrls2.rdPerTurnAround::640-767            1      0.01%     99.88% # Reads before turning the bus around for writes
system.mem_ctrls2.rdPerTurnAround::896-1023            1      0.01%     99.88% # Reads before turning the bus around for writes
system.mem_ctrls2.rdPerTurnAround::1024-1151            2      0.02%     99.90% # Reads before turning the bus around for writes
system.mem_ctrls2.rdPerTurnAround::1152-1279            4      0.03%     99.93% # Reads before turning the bus around for writes
system.mem_ctrls2.rdPerTurnAround::1408-1535            5      0.04%     99.98% # Reads before turning the bus around for writes
system.mem_ctrls2.rdPerTurnAround::1536-1663            1      0.01%     99.98% # Reads before turning the bus around for writes
system.mem_ctrls2.rdPerTurnAround::2304-2431            1      0.01%     99.99% # Reads before turning the bus around for writes
system.mem_ctrls2.rdPerTurnAround::2816-2943            1      0.01%    100.00% # Reads before turning the bus around for writes
system.mem_ctrls2.rdPerTurnAround::total        12006                       # Reads before turning the bus around for writes
system.mem_ctrls2.wrPerTurnAround::samples        12006                       # Writes before turning the bus around for reads
system.mem_ctrls2.wrPerTurnAround::mean      5.010495                       # Writes before turning the bus around for reads
system.mem_ctrls2.wrPerTurnAround::gmean     5.008764                       # Writes before turning the bus around for reads
system.mem_ctrls2.wrPerTurnAround::stdev     0.161387                       # Writes before turning the bus around for reads
system.mem_ctrls2.wrPerTurnAround::4-5          11918     99.27%     99.27% # Writes before turning the bus around for reads
system.mem_ctrls2.wrPerTurnAround::6-7             79      0.66%     99.93% # Writes before turning the bus around for reads
system.mem_ctrls2.wrPerTurnAround::8-9              6      0.05%     99.98% # Writes before turning the bus around for reads
system.mem_ctrls2.wrPerTurnAround::10-11            2      0.02%     99.99% # Writes before turning the bus around for reads
system.mem_ctrls2.wrPerTurnAround::14-15            1      0.01%    100.00% # Writes before turning the bus around for reads
system.mem_ctrls2.wrPerTurnAround::total        12006                       # Writes before turning the bus around for reads
system.mem_ctrls2.totQLat                  1424746500                       # Total ticks spent queuing
system.mem_ctrls2.totMemAccLat             5494115250                       # Total ticks spent from burst creation until serviced by the DRAM
system.mem_ctrls2.totBusLat                1085165000                       # Total ticks spent in databus transfers
system.mem_ctrls2.avgQLat                     6564.65                       # Average queueing delay per DRAM burst
system.mem_ctrls2.avgBusLat                   5000.00                       # Average bus latency per DRAM burst
system.mem_ctrls2.avgMemAccLat               25314.65                       # Average memory access latency per DRAM burst
system.mem_ctrls2.avgRdBW                      111.92                       # Average DRAM read bandwidth in MiByte/s
system.mem_ctrls2.avgWrBW                       31.02                       # Average achieved write bandwidth in MiByte/s
system.mem_ctrls2.avgRdBWSys                   111.94                       # Average system read bandwidth in MiByte/s
system.mem_ctrls2.avgWrBWSys                    31.02                       # Average system write bandwidth in MiByte/s
system.mem_ctrls2.peakBW                     12800.00                       # Theoretical peak bandwidth in MiByte/s
system.mem_ctrls2.busUtil                        1.12                       # Data bus utilization in percentage
system.mem_ctrls2.busUtilRead                    0.87                       # Data bus utilization in percentage for reads
system.mem_ctrls2.busUtilWrite                   0.24                       # Data bus utilization in percentage for writes
system.mem_ctrls2.avgRdQLen                      1.00                       # Average read queue length when enqueuing
system.mem_ctrls2.avgWrQLen                      3.00                       # Average write queue length when enqueuing
system.mem_ctrls2.readRowHits                  176476                       # Number of row buffer hits during reads
system.mem_ctrls2.writeRowHits                  42086                       # Number of row buffer hits during writes
system.mem_ctrls2.readRowHitRate                81.31                       # Row buffer hit rate for reads
system.mem_ctrls2.writeRowHitRate               69.96                       # Row buffer hit rate for writes
system.mem_ctrls2.avgGap                    447673.89                       # Average gap between requests
system.mem_ctrls2.pageHitRate                   78.85                       # Row buffer hit rate, read and write combined
system.mem_ctrls2.memoryStateTime::IDLE   15213895250                       # Time in different power states
system.mem_ctrls2.memoryStateTime::REF     4143880000                       # Time in different power states
system.mem_ctrls2.memoryStateTime::PRE_PDN            0                       # Time in different power states
system.mem_ctrls2.memoryStateTime::ACT   104739751000                       # Time in different power states
system.mem_ctrls2.memoryStateTime::ACT_PDN            0                       # Time in different power states
system.mem_ctrls2.actEnergy::0              228659760                       # Energy for activate commands per rank (pJ)
system.mem_ctrls2.actEnergy::1              214484760                       # Energy for activate commands per rank (pJ)
system.mem_ctrls2.preEnergy::0              124764750                       # Energy for precharge commands per rank (pJ)
system.mem_ctrls2.preEnergy::1              117030375                       # Energy for precharge commands per rank (pJ)
system.mem_ctrls2.readEnergy::0             854373000                       # Energy for read commands per rank (pJ)
system.mem_ctrls2.readEnergy::1             838344000                       # Energy for read commands per rank (pJ)
system.mem_ctrls2.writeEnergy::0            198197280                       # Energy for write commands per rank (pJ)
system.mem_ctrls2.writeEnergy::1            191613600                       # Energy for write commands per rank (pJ)
system.mem_ctrls2.refreshEnergy::0         8105429280                       # Energy for refresh commands per rank (pJ)
system.mem_ctrls2.refreshEnergy::1         8105429280                       # Energy for refresh commands per rank (pJ)
system.mem_ctrls2.actBackEnergy::0        47191141890                       # Energy for active background per rank (pJ)
system.mem_ctrls2.actBackEnergy::1        46227172140                       # Energy for active background per rank (pJ)
system.mem_ctrls2.preBackEnergy::0        33062769000                       # Energy for precharge background per rank (pJ)
system.mem_ctrls2.preBackEnergy::1        33908356500                       # Energy for precharge background per rank (pJ)
system.mem_ctrls2.totalEnergy::0          89765334960                       # Total energy per rank (pJ)
system.mem_ctrls2.totalEnergy::1          89602430655                       # Total energy per rank (pJ)
system.mem_ctrls2.averagePower::0          723.345159                       # Core power per rank (mW)
system.mem_ctrls2.averagePower::1          722.032447                       # Core power per rank (mW)
system.mem_ctrls3.bytes_read::ruby.dir_cntrl3     13874432                       # Number of bytes read from this memory
system.mem_ctrls3.bytes_read::total          13874432                       # Number of bytes read from this memory
system.mem_ctrls3.bytes_written::ruby.dir_cntrl3      3842816                       # Number of bytes written to this memory
system.mem_ctrls3.bytes_written::total        3842816                       # Number of bytes written to this memory
system.mem_ctrls3.num_reads::ruby.dir_cntrl3       216788                       # Number of read requests responded to by this memory
system.mem_ctrls3.num_reads::total             216788                       # Number of read requests responded to by this memory
system.mem_ctrls3.num_writes::ruby.dir_cntrl3        60044                       # Number of write requests responded to by this memory
system.mem_ctrls3.num_writes::total             60044                       # Number of write requests responded to by this memory
system.mem_ctrls3.bw_read::ruby.dir_cntrl3    111796835                       # Total read bandwidth from this memory (bytes/s)
system.mem_ctrls3.bw_read::total            111796835                       # Total read bandwidth from this memory (bytes/s)
system.mem_ctrls3.bw_write::ruby.dir_cntrl3     30964487                       # Write bandwidth from this memory (bytes/s)
system.mem_ctrls3.bw_write::total            30964487                       # Write bandwidth from this memory (bytes/s)
system.mem_ctrls3.bw_total::ruby.dir_cntrl3    142761322                       # Total bandwidth to/from this memory (bytes/s)
system.mem_ctrls3.bw_total::total           142761322                       # Total bandwidth to/from this memory (bytes/s)
system.mem_ctrls3.readReqs                     216789                       # Number of read requests accepted
system.mem_ctrls3.writeReqs                     60044                       # Number of write requests accepted
system.mem_ctrls3.readBursts                   216789                       # Number of DRAM read bursts, including those serviced by the write queue
system.mem_ctrls3.writeBursts                   60044                       # Number of DRAM write bursts, including those merged in the write queue
system.mem_ctrls3.bytesReadDRAM              13873152                       # Total number of bytes read from DRAM
system.mem_ctrls3.bytesReadWrQ                   1344                       # Total number of bytes read from write queue
system.mem_ctrls3.bytesWritten                3842752                       # Total number of bytes written to DRAM
system.mem_ctrls3.bytesReadSys               13874496                       # Total read bytes from the system interface side
system.mem_ctrls3.bytesWrittenSys             3842816                       # Total written bytes from the system interface side
system.mem_ctrls3.servicedByWrQ                    21                       # Number of DRAM read bursts serviced by the write queue
system.mem_ctrls3.mergedWrBursts                    0                       # Number of DRAM write bursts merged with an existing one
system.mem_ctrls3.neitherReadNorWriteReqs            0                       # Number of requests that are neither read nor write
system.mem_ctrls3.perBankRdBursts::0            13265                       # Per bank write bursts
system.mem_ctrls3.perBankRdBursts::1            13942                       # Per bank write bursts
system.mem_ctrls3.perBankRdBursts::2            13564                       # Per bank write bursts
system.mem_ctrls3.perBankRdBursts::3            13899                       # Per bank write bursts
system.mem_ctrls3.perBankRdBursts::4            13512                       # Per bank write bursts
system.mem_ctrls3.perBankRdBursts::5            14099                       # Per bank write bursts
system.mem_ctrls3.perBankRdBursts::6            13565                       # Per bank write bursts
system.mem_ctrls3.perBankRdBursts::7            13517                       # Per bank write bursts
system.mem_ctrls3.perBankRdBursts::8            13484                       # Per bank write bursts
system.mem_ctrls3.perBankRdBursts::9            13714                       # Per bank write bursts
system.mem_ctrls3.perBankRdBursts::10           13519                       # Per bank write bursts
system.mem_ctrls3.perBankRdBursts::11           13670                       # Per bank write bursts
system.mem_ctrls3.perBankRdBursts::12           13200                       # Per bank write bursts
system.mem_ctrls3.perBankRdBursts::13           13088                       # Per bank write bursts
system.mem_ctrls3.perBankRdBursts::14           13327                       # Per bank write bursts
system.mem_ctrls3.perBankRdBursts::15           13403                       # Per bank write bursts
system.mem_ctrls3.perBankWrBursts::0             3694                       # Per bank write bursts
system.mem_ctrls3.perBankWrBursts::1             3773                       # Per bank write bursts
system.mem_ctrls3.perBankWrBursts::2             3766                       # Per bank write bursts
system.mem_ctrls3.perBankWrBursts::3             3975                       # Per bank write bursts
system.mem_ctrls3.perBankWrBursts::4             3764                       # Per bank write bursts
system.mem_ctrls3.perBankWrBursts::5             3913                       # Per bank write bursts
system.mem_ctrls3.perBankWrBursts::6             3813                       # Per bank write bursts
system.mem_ctrls3.perBankWrBursts::7             3782                       # Per bank write bursts
system.mem_ctrls3.perBankWrBursts::8             3662                       # Per bank write bursts
system.mem_ctrls3.perBankWrBursts::9             3919                       # Per bank write bursts
system.mem_ctrls3.perBankWrBursts::10            3665                       # Per bank write bursts
system.mem_ctrls3.perBankWrBursts::11            3639                       # Per bank write bursts
system.mem_ctrls3.perBankWrBursts::12            3573                       # Per bank write bursts
system.mem_ctrls3.perBankWrBursts::13            3596                       # Per bank write bursts
system.mem_ctrls3.perBankWrBursts::14            3805                       # Per bank write bursts
system.mem_ctrls3.perBankWrBursts::15            3704                       # Per bank write bursts
system.mem_ctrls3.numRdRetry                        0                       # Number of times read queue was full causing retry
system.mem_ctrls3.numWrRetry                        0                       # Number of times write queue was full causing retry
system.mem_ctrls3.totGap                 124103232500                       # Total gap between requests
system.mem_ctrls3.readPktSize::0                    0                       # Read request sizes (log2)
system.mem_ctrls3.readPktSize::1                    0                       # Read request sizes (log2)
system.mem_ctrls3.readPktSize::2                    0                       # Read request sizes (log2)
[...]
system.ruby.L2Cache_Controller.S_I.Ack::total           13                      
system.ruby.L2Cache_Controller.S_I.Ack_all |           0      0.00%      0.00% |           4     12.12%     12.12% |           1      3.03%     15.15% |           2      6.06%     21.21% |           0      0.00%     21.21% |           3      9.09%     30.30% |           0      0.00%     30.30% |           0      0.00%     30.30% |           0      0.00%     30.30% |           1      3.03%     33.33% |           0      0.00%     33.33% |           0      0.00%     33.33% |           5     15.15%     48.48% |           0      0.00%     48.48% |           2      6.06%     54.55% |           1      3.03%     57.58% |           0      0.00%     57.58% |           0      0.00%     57.58% |           1      3.03%     60.61% |           2      6.06%     66.67% |           0      0.00%     66.67% |           1      3.03%     69.70% |           2      6.06%     75.76% |           0      0.00%     75.76% |           1      3.03%     78.79% |           1      3.03%     81.82% |           0      0.00%     81.82% |           1      3.03%     84.85% |           4     12.12%     96.97% |           0      0.00%     96.97% |           0      0.00%     96.97% |           1      3.03%    100.00%
system.ruby.L2Cache_Controller.S_I.Ack_all::total           33                      
system.ruby.L2Cache_Controller.ISS.Mem_Data |       23439      3.52%      3.52% |       20757      3.12%      6.64% |       20834      3.13%      9.78% |       20742      3.12%     12.89% |       20725      3.12%     16.01% |       20728      3.12%     19.13% |       20711      3.11%     22.24% |       20706      3.11%     25.35% |       20715      3.11%     28.47% |       20740      3.12%     31.59% |       20779      3.12%     34.71% |       20687      3.11%     37.82% |       20690      3.11%     40.93% |       20690      3.11%     44.04% |       20707      3.11%     47.15% |       20649      3.10%     50.26% |       20674      3.11%     53.37% |       20671      3.11%     56.47% |       20687      3.11%     59.58% |       20672      3.11%     62.69% |       20694      3.11%     65.80% |       20658      3.11%     68.91% |       20697      3.11%     72.02% |       20676      3.11%     75.13% |       20706      3.11%     78.24% |       20709      3.11%     81.36% |       20664      3.11%     84.46% |       20643      3.10%     87.57% |       20694      3.11%     90.68% |       20635      3.10%     93.78% |       20633      3.10%     96.88% |       20749      3.12%    100.00%
system.ruby.L2Cache_Controller.ISS.Mem_Data::total       665161                      
system.ruby.L2Cache_Controller.IS.Mem_Data |         478      3.15%      3.15% |         412      2.72%      5.87% |         445      2.93%      8.80% |         435      2.87%     11.67% |         438      2.89%     14.56% |         425      2.80%     17.36% |         420      2.77%     20.13% |         452      2.98%     23.12% |         446      2.94%     26.06% |         483      3.19%     29.24% |         489      3.22%     32.47% |         474      3.13%     35.59% |         533      3.52%     39.11% |         539      3.55%     42.66% |         463      3.05%     45.72% |         521      3.44%     49.15% |         529      3.49%     52.64% |         511      3.37%     56.01% |         468      3.09%     59.10% |         428      2.82%     61.92% |         440      2.90%     64.82% |         503      3.32%     68.14% |         485      3.20%     71.34% |         489      3.22%     74.56% |         484      3.19%     77.76% |         516      3.40%     81.16% |         512      3.38%     84.53% |         476      3.14%     87.67% |         480      3.17%     90.84% |         473      3.12%     93.96% |         467      3.08%     97.04% |         449      2.96%    100.00%
system.ruby.L2Cache_Controller.IS.Mem_Data::total        15163                      
system.ruby.L2Cache_Controller.IM.Mem_Data |        6014      3.16%      3.16% |        5949      3.12%      6.28% |        5957      3.13%      9.41% |        5966      3.13%     12.55% |        5948      3.12%     15.67% |        5948      3.12%     18.79% |        5941      3.12%     21.91% |        5931      3.12%     25.03% |        5974      3.14%     28.17% |        5944      3.12%     31.29% |        5929      3.11%     34.40% |        5950      3.13%     37.53% |        5951      3.13%     40.65% |        5934      3.12%     43.77% |        5932      3.12%     46.89% |        5932      3.12%     50.00% |        5946      3.12%     53.13% |        5956      3.13%     56.25% |        5958      3.13%     59.38% |        5937      3.12%     62.50% |        5943      3.12%     65.62% |        5952      3.13%     68.75% |        5933      3.12%     71.86% |        5942      3.12%     74.99% |        5948      3.12%     78.11% |        5946      3.12%     81.23% |        5971      3.14%     84.37% |        5955      3.13%     87.50% |        5944      3.12%     90.62% |        5958      3.13%     93.75% |        5976      3.14%     96.89% |        5927      3.11%    100.00%
system.ruby.L2Cache_Controller.IM.Mem_Data::total       190392                      
system.ruby.L2Cache_Controller.SS_MB.Exclusive_Unblock |           5      9.26%      9.26% |           6     11.11%     20.37% |           3      5.56%     25.93% |           6     11.11%     37.04% |           0      0.00%     37.04% |           1      1.85%     38.89% |           1      1.85%     40.74% |           0      0.00%     40.74% |           0      0.00%     40.74% |           1      1.85%     42.59% |           0      0.00%     42.59% |           0      0.00%     42.59% |           5      9.26%     51.85% |           0      0.00%     51.85% |           2      3.70%     55.56% |           1      1.85%     57.41% |           0      0.00%     57.41% |           0      0.00%     57.41% |          10     18.52%     75.93% |           2      3.70%     79.63% |           0      0.00%     79.63% |           0      0.00%     79.63% |           0      0.00%     79.63% |           0      0.00%     79.63% |           1      1.85%     81.48% |           0      0.00%     81.48% |           2      3.70%     85.19% |           1      1.85%     87.04% |           4      7.41%     94.44% |           1      1.85%     96.30% |           1      1.85%     98.15% |           1      1.85%    100.00%
system.ruby.L2Cache_Controller.SS_MB.Exclusive_Unblock::total           54                      
system.ruby.L2Cache_Controller.MT_MB.Exclusive_Unblock |       78663      7.15%      7.15% |       33611      3.06%     10.21% |       32978      3.00%     13.20% |       33125      3.01%     16.21% |       33218      3.02%     19.23% |       32147      2.92%     22.16% |       32057      2.91%     25.07% |       31776      2.89%     27.96% |       34093      3.10%     31.06% |       32448      2.95%     34.01% |       34395      3.13%     37.13% |       33210      3.02%     40.15% |       32786      2.98%     43.13% |       31824      2.89%     46.03% |       31870      2.90%     48.92% |       31737      2.88%     51.81% |       34342      3.12%     54.93% |       32324      2.94%     57.87% |       33190      3.02%     60.88% |       32741      2.98%     63.86% |       33125      3.01%     66.87% |       32552      2.96%     69.83% |       33106      3.01%     72.84% |       32104      2.92%     75.76% |       33740      3.07%     78.82% |       32437      2.95%     81.77% |       32941      2.99%     84.77% |       31908      2.90%     87.67% |       33259      3.02%     90.69% |       31985      2.91%     93.60% |       34380      3.13%     96.72% |       36045      3.28%    100.00%
system.ruby.L2Cache_Controller.MT_MB.Exclusive_Unblock::total      1100117                      
system.ruby.L2Cache_Controller.MT_IIB.WB_Data |           0      0.00%      0.00% |           2     16.67%     16.67% |           0      0.00%     16.67% |           0      0.00%     16.67% |           0      0.00%     16.67% |           0      0.00%     16.67% |           0      0.00%     16.67% |           0      0.00%     16.67% |           0      0.00%     16.67% |           0      0.00%     16.67% |           0      0.00%     16.67% |           0      0.00%     16.67% |           4     33.33%     50.00% |           0      0.00%     50.00% |           0      0.00%     50.00% |           0      0.00%     50.00% |           0      0.00%     50.00% |           0      0.00%     50.00% |           1      8.33%     58.33% |           1      8.33%     66.67% |           0      0.00%     66.67% |           0      0.00%     66.67% |           2     16.67%     83.33% |           0      0.00%     83.33% |           0      0.00%     83.33% |           0      0.00%     83.33% |           0      0.00%     83.33% |           0      0.00%     83.33% |           2     16.67%    100.00% |           0      0.00%    100.00% |           0      0.00%    100.00% |           0      0.00%    100.00%
system.ruby.L2Cache_Controller.MT_IIB.WB_Data::total           12                      
system.ruby.L2Cache_Controller.MT_IIB.WB_Data_clean |           0      0.00%      0.00% |           2     50.00%     50.00% |           0      0.00%     50.00% |           0      0.00%     50.00% |           0      0.00%     50.00% |           0      0.00%     50.00% |           0      0.00%     50.00% |           0      0.00%     50.00% |           0      0.00%     50.00% |           0      0.00%     50.00% |           0      0.00%     50.00% |           0      0.00%     50.00% |           0      0.00%     50.00% |           0      0.00%     50.00% |           1     25.00%     75.00% |           0      0.00%     75.00% |           1     25.00%    100.00% |           0      0.00%    100.00% |           0      0.00%    100.00% |           0      0.00%    100.00% |           0      0.00%    100.00% |           0      0.00%    100.00% |           0      0.00%    100.00% |           0      0.00%    100.00% |           0      0.00%    100.00% |           0      0.00%    100.00% |           0      0.00%    100.00% |           0      0.00%    100.00% |           0      0.00%    100.00% |           0      0.00%    100.00% |           0      0.00%    100.00% |           0      0.00%    100.00%
system.ruby.L2Cache_Controller.MT_IIB.WB_Data_clean::total            4                      
system.ruby.L2Cache_Controller.MT_IIB.Unblock |           0      0.00%      0.00% |           0      0.00%      0.00% |           0      0.00%      0.00% |           0      0.00%      0.00% |           0      0.00%      0.00% |           0      0.00%      0.00% |           0      0.00%      0.00% |           0      0.00%      0.00% |           0      0.00%      0.00% |           0      0.00%      0.00% |           0      0.00%      0.00% |           0      0.00%      0.00% |           0      0.00%      0.00% |           0      0.00%      0.00% |           0      0.00%      0.00% |           0      0.00%      0.00% |           0      0.00%      0.00% |           0      0.00%      0.00% |           0      0.00%      0.00% |           0      0.00%      0.00% |           0      0.00%      0.00% |           0      0.00%      0.00% |           0      0.00%      0.00% |           0      0.00%      0.00% |           0      0.00%      0.00% |           1    100.00%    100.00% |           0      0.00%    100.00% |           0      0.00%    100.00% |           0      0.00%    100.00% |           0      0.00%    100.00% |           0      0.00%    100.00% |           0      0.00%    100.00%
system.ruby.L2Cache_Controller.MT_IIB.Unblock::total            1                      
system.ruby.L2Cache_Controller.MT_IB.WB_Data |           0      0.00%      0.00% |           0      0.00%      0.00% |           0      0.00%      0.00% |           0      0.00%      0.00% |           0      0.00%      0.00% |           0      0.00%      0.00% |           0      0.00%      0.00% |           0      0.00%      0.00% |           0      0.00%      0.00% |           0      0.00%      0.00% |           0      0.00%      0.00% |           0      0.00%      0.00% |           0      0.00%      0.00% |           0      0.00%      0.00% |           0      0.00%      0.00% |           0      0.00%      0.00% |           0      0.00%      0.00% |           0      0.00%      0.00% |           0      0.00%      0.00% |           0      0.00%      0.00% |           0      0.00%      0.00% |           0      0.00%      0.00% |           0      0.00%      0.00% |           0      0.00%      0.00% |           0      0.00%      0.00% |           1    100.00%    100.00% |           0      0.00%    100.00% |           0      0.00%    100.00% |           0      0.00%    100.00% |           0      0.00%    100.00% |           0      0.00%    100.00% |           0      0.00%    100.00%
system.ruby.L2Cache_Controller.MT_IB.WB_Data::total            1                      
system.ruby.L2Cache_Controller.MT_SB.Unblock |           0      0.00%      0.00% |           4     25.00%     25.00% |           0      0.00%     25.00% |           0      0.00%     25.00% |           0      0.00%     25.00% |           0      0.00%     25.00% |           0      0.00%     25.00% |           0      0.00%     25.00% |           0      0.00%     25.00% |           0      0.00%     25.00% |           0      0.00%     25.00% |           0      0.00%     25.00% |           4     25.00%     50.00% |           0      0.00%     50.00% |           1      6.25%     56.25% |           0      0.00%     56.25% |           1      6.25%     62.50% |           0      0.00%     62.50% |           1      6.25%     68.75% |           1      6.25%     75.00% |           0      0.00%     75.00% |           0      0.00%     75.00% |           2     12.50%     87.50% |           0      0.00%     87.50% |           0      0.00%     87.50% |           0      0.00%     87.50% |           0      0.00%     87.50% |           0      0.00%     87.50% |           2     12.50%    100.00% |           0      0.00%    100.00% |           0      0.00%    100.00% |           0      0.00%    100.00%
system.ruby.L2Cache_Controller.MT_SB.Unblock::total           16                      
system.ruby.SimicsNetworkPortInterface_Controller.MessageSend |       75074      4.17%      4.17% |      899845     50.00%     54.17% |      824771     45.83%    100.00% |           0      0.00%    100.00% |           0      0.00%    100.00% |           0      0.00%    100.00% |           0      0.00%    100.00% |           0      0.00%    100.00% |           0      0.00%    100.00% |           0      0.00%    100.00% |           0      0.00%    100.00% |           0      0.00%    100.00% |           0      0.00%    100.00% |           0      0.00%    100.00% |           0      0.00%    100.00% |           0      0.00%    100.00% |           0      0.00%    100.00% |           0      0.00%    100.00% |           0      0.00%    100.00% |           0      0.00%    100.00% |           0      0.00%    100.00% |           0      0.00%    100.00% |           0      0.00%    100.00% |           0      0.00%    100.00% |           0      0.00%    100.00% |           0      0.00%    100.00% |           0      0.00%    100.00% |           0      0.00%    100.00% |           0      0.00%    100.00% |           0      0.00%    100.00% |           0      0.00%    100.00% |           0      0.00%    100.00%
system.ruby.SimicsNetworkPortInterface_Controller.MessageSend::total      1799690                      
system.ruby.SimicsNetworkPortInterface_Controller.MessageRecv |       75074      4.17%      4.17% |      899845     50.00%     54.17% |      824771     45.83%    100.00% |           0      0.00%    100.00% |           0      0.00%    100.00% |           0      0.00%    100.00% |           0      0.00%    100.00% |           0      0.00%    100.00% |           0      0.00%    100.00% |           0      0.00%    100.00% |           0      0.00%    100.00% |           0      0.00%    100.00% |           0      0.00%    100.00% |           0      0.00%    100.00% |           0      0.00%    100.00% |           0      0.00%    100.00% |           0      0.00%    100.00% |           0      0.00%    100.00% |           0      0.00%    100.00% |           0      0.00%    100.00% |           0      0.00%    100.00% |           0      0.00%    100.00% |           0      0.00%    100.00% |           0      0.00%    100.00% |           0      0.00%    100.00% |           0      0.00%    100.00% |           0      0.00%    100.00% |           0      0.00%    100.00% |           0      0.00%    100.00% |           0      0.00%    100.00% |           0      0.00%    100.00% |           0      0.00%    100.00%
system.ruby.SimicsNetworkPortInterface_Controller.MessageRecv::total      1799690                      
system.ruby.SimicsNetworkPortInterface_Controller.A.MessageSend |       75074      4.17%      4.17% |      899845     50.00%     54.17% |      824771     45.83%    100.00% |           0      0.00%    100.00% |           0      0.00%    100.00% |           0      0.00%    100.00% |           0      0.00%    100.00% |           0      0.00%    100.00% |           0      0.00%    100.00% |           0      0.00%    100.00% |           0      0.00%    100.00% |           0      0.00%    100.00% |           0      0.00%    100.00% |           0      0.00%    100.00% |           0      0.00%    100.00% |           0      0.00%    100.00% |           0      0.00%    100.00% |           0      0.00%    100.00% |           0      0.00%    100.00% |           0      0.00%    100.00% |           0      0.00%    100.00% |           0      0.00%    100.00% |           0      0.00%    100.00% |           0      0.00%    100.00% |           0      0.00%    100.00% |           0      0.00%    100.00% |           0      0.00%    100.00% |           0      0.00%    100.00% |           0      0.00%    100.00% |           0      0.00%    100.00% |           0      0.00%    100.00% |           0      0.00%    100.00%
system.ruby.SimicsNetworkPortInterface_Controller.A.MessageSend::total      1799690                      
system.ruby.SimicsNetworkPortInterface_Controller.A.MessageRecv |       75074      4.17%      4.17% |      899845     50.00%     54.17% |      824771     45.83%    100.00% |           0      0.00%    100.00% |           0      0.00%    100.00% |           0      0.00%    100.00% |           0      0.00%    100.00% |           0      0.00%    100.00% |           0      0.00%    100.00% |           0      0.00%    100.00% |           0      0.00%    100.00% |           0      0.00%    100.00% |           0      0.00%    100.00% |           0      0.00%    100.00% |           0      0.00%    100.00% |           0      0.00%    100.00% |           0      0.00%    100.00% |           0      0.00%    100.00% |           0      0.00%    100.00% |           0      0.00%    100.00% |           0      0.00%    100.00% |           0      0.00%    100.00% |           0      0.00%    100.00% |           0      0.00%    100.00% |           0      0.00%    100.00% |           0      0.00%    100.00% |           0      0.00%    100.00% |           0      0.00%    100.00% |           0      0.00%    100.00% |           0      0.00%    100.00% |           0      0.00%    100.00% |           0      0.00%    100.00%
system.ruby.SimicsNetworkPortInterface_Controller.A.MessageRecv::total      1799690                      
system.switch_cpus.kern.inst.arm                    0                       # number of arm instructions executed
system.switch_cpus.kern.inst.quiesce                0                       # number of quiesce instructions executed

---------- End Simulation Statistics   ----------
