
---------- Begin Simulation Statistics ----------
sim_seconds                                  0.093649                       # Number of seconds simulated
sim_ticks                                 93649302000                       # Number of ticks simulated
final_tick                               5269817380500                       # Number of ticks from beginning of simulation (restored from checkpoints and never reset)
sim_freq                                 1000000000000                       # Frequency of simulated ticks
host_inst_rate                                  48458                       # Simulator instruction rate (inst/s)
host_op_rate                                    85385                       # Simulator op (including micro ops) rate (op/s)
host_tick_rate                              105637246                       # Simulator tick rate (ticks/s)
host_mem_usage                                6169052                       # Number of bytes of host memory used
host_seconds                                   886.52                       # Real time elapsed on the host
sim_insts                                    42958478                       # Number of instructions simulated
sim_ops                                      75695561                       # Number of ops (including micro ops) simulated
system.voltage_domain.voltage                       1                       # Voltage in Volts
system.clk_domain.clock                           500                       # Clock period in ticks
system.mem_ctrls0.bytes_read::ruby.dir_cntrl0     21106624                       # Number of bytes read from this memory
system.mem_ctrls0.bytes_read::total          21106624                       # Number of bytes read from this memory
system.mem_ctrls0.bytes_written::ruby.dir_cntrl0     11911296                       # Number of bytes written to this memory
system.mem_ctrls0.bytes_written::total       11911296                       # Number of bytes written to this memory
system.mem_ctrls0.num_reads::ruby.dir_cntrl0       329791                       # Number of read requests responded to by this memory
system.mem_ctrls0.num_reads::total             329791                       # Number of read requests responded to by this memory
system.mem_ctrls0.num_writes::ruby.dir_cntrl0       186114                       # Number of write requests responded to by this memory
system.mem_ctrls0.num_writes::total            186114                       # Number of write requests responded to by this memory
system.mem_ctrls0.bw_read::ruby.dir_cntrl0    225379405                       # Total read bandwidth from this memory (bytes/s)
system.mem_ctrls0.bw_read::total            225379405                       # Total read bandwidth from this memory (bytes/s)
system.mem_ctrls0.bw_write::ruby.dir_cntrl0    127190441                       # Write bandwidth from this memory (bytes/s)
system.mem_ctrls0.bw_write::total           127190441                       # Write bandwidth from this memory (bytes/s)
system.mem_ctrls0.bw_total::ruby.dir_cntrl0    352569846                       # Total bandwidth to/from this memory (bytes/s)
system.mem_ctrls0.bw_total::total           352569846                       # Total bandwidth to/from this memory (bytes/s)
system.mem_ctrls0.readReqs                     329791                       # Number of read requests accepted
system.mem_ctrls0.writeReqs                    186114                       # Number of write requests accepted
system.mem_ctrls0.readBursts                   329791                       # Number of DRAM read bursts, including those serviced by the write queue
system.mem_ctrls0.writeBursts                  186114                       # Number of DRAM write bursts, including those merged in the write queue
system.mem_ctrls0.bytesReadDRAM              21104256                       # Total number of bytes read from DRAM
system.mem_ctrls0.bytesReadWrQ                   2368                       # Total number of bytes read from write queue
system.mem_ctrls0.bytesWritten               11911168                       # Total number of bytes written to DRAM
system.mem_ctrls0.bytesReadSys               21106624                       # Total read bytes from the system interface side
system.mem_ctrls0.bytesWrittenSys            11911296                       # Total written bytes from the system interface side
system.mem_ctrls0.servicedByWrQ                    37                       # Number of DRAM read bursts serviced by the write queue
system.mem_ctrls0.mergedWrBursts                    0                       # Number of DRAM write bursts merged with an existing one
system.mem_ctrls0.neitherReadNorWriteReqs            0                       # Number of requests that are neither read nor write
system.mem_ctrls0.perBankRdBursts::0            20339                       # Per bank write bursts
system.mem_ctrls0.perBankRdBursts::1            21003                       # Per bank write bursts
system.mem_ctrls0.perBankRdBursts::2            20474                       # Per bank write bursts
system.mem_ctrls0.perBankRdBursts::3            20848                       # Per bank write bursts
system.mem_ctrls0.perBankRdBursts::4            20501                       # Per bank write bursts
system.mem_ctrls0.perBankRdBursts::5            21023                       # Per bank write bursts
system.mem_ctrls0.perBankRdBursts::6            20623                       # Per bank write bursts
system.mem_ctrls0.perBankRdBursts::7            20699                       # Per bank write bursts
system.mem_ctrls0.perBankRdBursts::8            20667                       # Per bank write bursts
system.mem_ctrls0.perBankRdBursts::9            20871                       # Per bank write bursts
system.mem_ctrls0.perBankRdBursts::10           20586                       # Per bank write bursts
system.mem_ctrls0.perBankRdBursts::11           20933                       # Per bank write bursts
system.mem_ctrls0.perBankRdBursts::12           20221                       # Per bank write bursts
system.mem_ctrls0.perBankRdBursts::13           20128                       # Per bank write bursts
system.mem_ctrls0.perBankRdBursts::14           20440                       # Per bank write bursts
system.mem_ctrls0.perBankRdBursts::15           20398                       # Per bank write bursts
system.mem_ctrls0.perBankWrBursts::0            11506                       # Per bank write bursts
system.mem_ctrls0.perBankWrBursts::1            11665                       # Per bank write bursts
system.mem_ctrls0.perBankWrBursts::2            11667                       # Per bank write bursts
system.mem_ctrls0.perBankWrBursts::3            11651                       # Per bank write bursts
system.mem_ctrls0.perBankWrBursts::4            11602                       # Per bank write bursts
system.mem_ctrls0.perBankWrBursts::5            11917                       # Per bank write bursts
system.mem_ctrls0.perBankWrBursts::6            11560                       # Per bank write bursts
system.mem_ctrls0.perBankWrBursts::7            11677                       # Per bank write bursts
system.mem_ctrls0.perBankWrBursts::8            11897                       # Per bank write bursts
system.mem_ctrls0.perBankWrBursts::9            11723                       # Per bank write bursts
system.mem_ctrls0.perBankWrBursts::10           11530                       # Per bank write bursts
system.mem_ctrls0.perBankWrBursts::11           11706                       # Per bank write bursts
system.mem_ctrls0.perBankWrBursts::12           11352                       # Per bank write bursts
system.mem_ctrls0.perBankWrBursts::13           11311                       # Per bank write bursts
system.mem_ctrls0.perBankWrBursts::14           11752                       # Per bank write bursts
system.mem_ctrls0.perBankWrBursts::15           11596                       # Per bank write bursts
system.mem_ctrls0.numRdRetry                     6348                       # Number of times read queue was full causing retry
system.mem_ctrls0.numWrRetry                     3126                       # Number of times write queue was full causing retry
system.mem_ctrls0.totGap                  93648738500                       # Total gap between requests
system.mem_ctrls0.readPktSize::0                    0                       # Read request sizes (log2)
system.mem_ctrls0.readPktSize::1                    0                       # Read request sizes (log2)
system.mem_ctrls0.readPktSize::2                    0                       # Read request sizes (log2)
system.mem_ctrls0.readPktSize::3                    0                       # Read request sizes (log2)
system.mem_ctrls0.readPktSize::4                    0                       # Read request sizes (log2)
system.mem_ctrls0.readPktSize::5                    0                       # Read request sizes (log2)
system.mem_ctrls0.readPktSize::6               329791                       # Read request sizes (log2)
system.mem_ctrls0.writePktSize::0                   0                       # Write request sizes (log2)
system.mem_ctrls0.writePktSize::1                   0                       # Write request sizes (log2)
system.mem_ctrls0.writePktSize::2                   0                       # Write request sizes (log2)
system.mem_ctrls0.writePktSize::3                   0                       # Write request sizes (log2)
system.mem_ctrls0.writePktSize::4                   0                       # Write request sizes (log2)
system.mem_ctrls0.writePktSize::5                   0                       # Write request sizes (log2)
system.mem_ctrls0.writePktSize::6              186114                       # Write request sizes (log2)
system.mem_ctrls0.rdQLenPdf::0                 151287                       # What read queue length does an incoming req see
system.mem_ctrls0.rdQLenPdf::1                  33260                       # What read queue length does an incoming req see
system.mem_ctrls0.rdQLenPdf::2                  26219                       # What read queue length does an incoming req see
system.mem_ctrls0.rdQLenPdf::3                  20050                       # What read queue length does an incoming req see
system.mem_ctrls0.rdQLenPdf::4                  15361                       # What read queue length does an incoming req see
system.mem_ctrls0.rdQLenPdf::5                  12333                       # What read queue length does an incoming req see
system.mem_ctrls0.rdQLenPdf::6                   9839                       # What read queue length does an incoming req see
system.mem_ctrls0.rdQLenPdf::7                   7986                       # What read queue length does an incoming req see
system.mem_ctrls0.rdQLenPdf::8                   6512                       # What read queue length does an incoming req see
system.mem_ctrls0.rdQLenPdf::9                   5398                       # What read queue length does an incoming req see
system.mem_ctrls0.rdQLenPdf::10                  4564                       # What read queue length does an incoming req see
system.mem_ctrls0.rdQLenPdf::11                  3893                       # What read queue length does an incoming req see
system.mem_ctrls0.rdQLenPdf::12                  3345                       # What read queue length does an incoming req see
system.mem_ctrls0.rdQLenPdf::13                  2852                       # What read queue length does an incoming req see
system.mem_ctrls0.rdQLenPdf::14                  2511                       # What read queue length does an incoming req see
system.mem_ctrls0.rdQLenPdf::15                  2199                       # What read queue length does an incoming req see
system.mem_ctrls0.rdQLenPdf::16                  1979                       # What read queue length does an incoming req see
system.mem_ctrls0.rdQLenPdf::17                  1695                       # What read queue length does an incoming req see
system.mem_ctrls0.rdQLenPdf::18                  1546                       # What read queue length does an incoming req see
system.mem_ctrls0.rdQLenPdf::19                  1407                       # What read queue length does an incoming req see
system.mem_ctrls0.rdQLenPdf::20                  1203                       # What read queue length does an incoming req see
system.mem_ctrls0.rdQLenPdf::21                  1157                       # What read queue length does an incoming req see
system.mem_ctrls0.rdQLenPdf::22                   999                       # What read queue length does an incoming req see
system.mem_ctrls0.rdQLenPdf::23                   847                       # What read queue length does an incoming req see
system.mem_ctrls0.rdQLenPdf::24                   753                       # What read queue length does an incoming req see
system.mem_ctrls0.rdQLenPdf::25                   682                       # What read queue length does an incoming req see
system.mem_ctrls0.rdQLenPdf::26                   623                       # What read queue length does an incoming req see
system.mem_ctrls0.rdQLenPdf::27                   617                       # What read queue length does an incoming req see
system.mem_ctrls0.rdQLenPdf::28                   530                       # What read queue length does an incoming req see
system.mem_ctrls0.rdQLenPdf::29                   526                       # What read queue length does an incoming req see
system.mem_ctrls0.rdQLenPdf::30                   570                       # What read queue length does an incoming req see
system.mem_ctrls0.rdQLenPdf::31                  7011                       # What read queue length does an incoming req see
system.mem_ctrls0.wrQLenPdf::0                  32404                       # What write queue length does an incoming req see
system.mem_ctrls0.wrQLenPdf::1                  34582                       # What write queue length does an incoming req see
system.mem_ctrls0.wrQLenPdf::2                  35210                       # What write queue length does an incoming req see
system.mem_ctrls0.wrQLenPdf::3                  35380                       # What write queue length does an incoming req see
system.mem_ctrls0.wrQLenPdf::4                  35291                       # What write queue length does an incoming req see
system.mem_ctrls0.wrQLenPdf::5                   4392                       # What write queue length does an incoming req see
system.mem_ctrls0.wrQLenPdf::6                   3390                       # What write queue length does an incoming req see
system.mem_ctrls0.wrQLenPdf::7                   5465                       # What write queue length does an incoming req see
system.mem_ctrls0.bytesPerActivate::samples       146570                       # Bytes accessed per row activation
system.mem_ctrls0.bytesPerActivate::mean   225.247950                       # Bytes accessed per row activation
system.mem_ctrls0.bytesPerActivate::gmean   167.559525                       # Bytes accessed per row activation
system.mem_ctrls0.bytesPerActivate::stdev   188.982570                       # Bytes accessed per row activation
system.mem_ctrls0.bytesPerActivate::0-127        43809     29.89%     29.89% # Bytes accessed per row activation
system.mem_ctrls0.bytesPerActivate::128-255        42417     28.94%     58.83% # Bytes accessed per row activation
system.mem_ctrls0.bytesPerActivate::256-383        42112     28.73%     87.56% # Bytes accessed per row activation
system.mem_ctrls0.bytesPerActivate::384-511         6714      4.58%     92.14% # Bytes accessed per row activation
system.mem_ctrls0.bytesPerActivate::512-639         4317      2.95%     95.09% # Bytes accessed per row activation
system.mem_ctrls0.bytesPerActivate::640-767         2271      1.55%     96.64% # Bytes accessed per row activation
system.mem_ctrls0.bytesPerActivate::768-895         1553      1.06%     97.70% # Bytes accessed per row activation
system.mem_ctrls0.bytesPerActivate::896-1023         1078      0.74%     98.43% # Bytes accessed per row activation
system.mem_ctrls0.bytesPerActivate::1024-1151         2299      1.57%    100.00% # Bytes accessed per row activation
system.mem_ctrls0.bytesPerActivate::total       146570                       # Bytes accessed per row activation
system.mem_ctrls0.rdPerTurnAround::samples        32727                       # Reads before turning the bus around for writes
system.mem_ctrls0.rdPerTurnAround::mean     10.075778                       # Reads before turning the bus around for writes
system.mem_ctrls0.rdPerTurnAround::stdev    24.562669                       # Reads before turning the bus around for writes
system.mem_ctrls0.rdPerTurnAround::0-127        32718     99.97%     99.97% # Reads before turning the bus around for writes
system.mem_ctrls0.rdPerTurnAround::128-255            8      0.02%    100.00% # Reads before turning the bus around for writes
system.mem_ctrls0.rdPerTurnAround::3968-4095            1      0.00%    100.00% # Reads before turning the bus around for writes
system.mem_ctrls0.rdPerTurnAround::total        32727                       # Reads before turning the bus around for writes
system.mem_ctrls0.wrPerTurnAround::samples        32727                       # Writes before turning the bus around for reads
system.mem_ctrls0.wrPerTurnAround::mean      5.686803                       # Writes before turning the bus around for reads
system.mem_ctrls0.wrPerTurnAround::gmean     5.496062                       # Writes before turning the bus around for reads
system.mem_ctrls0.wrPerTurnAround::stdev     1.899187                       # Writes before turning the bus around for reads
system.mem_ctrls0.wrPerTurnAround::4-7          29679     90.69%     90.69% # Writes before turning the bus around for reads
system.mem_ctrls0.wrPerTurnAround::8-11          2063      6.30%     96.99% # Writes before turning the bus around for reads
system.mem_ctrls0.wrPerTurnAround::12-15          569      1.74%     98.73% # Writes before turning the bus around for reads
system.mem_ctrls0.wrPerTurnAround::16-19          416      1.27%    100.00% # Writes before turning the bus around for reads
system.mem_ctrls0.wrPerTurnAround::total        32727                       # Writes before turning the bus around for reads
system.mem_ctrls0.totQLat                 15550810680                       # Total ticks spent queuing
system.mem_ctrls0.totMemAccLat            21733698180                       # Total ticks spent from burst creation until serviced by the DRAM
system.mem_ctrls0.totBusLat                1648770000                       # Total ticks spent in databus transfers
system.mem_ctrls0.avgQLat                    47158.82                       # Average queueing delay per DRAM burst
system.mem_ctrls0.avgBusLat                   5000.00                       # Average bus latency per DRAM burst
system.mem_ctrls0.avgMemAccLat               65908.82                       # Average memory access latency per DRAM burst
system.mem_ctrls0.avgRdBW                      225.35                       # Average DRAM read bandwidth in MiByte/s
system.mem_ctrls0.avgWrBW                      127.19                       # Average achieved write bandwidth in MiByte/s
system.mem_ctrls0.avgRdBWSys                   225.38                       # Average system read bandwidth in MiByte/s
system.mem_ctrls0.avgWrBWSys                   127.19                       # Average system write bandwidth in MiByte/s
system.mem_ctrls0.peakBW                     12800.00                       # Theoretical peak bandwidth in MiByte/s
system.mem_ctrls0.busUtil                        2.75                       # Data bus utilization in percentage
system.mem_ctrls0.busUtilRead                    1.76                       # Data bus utilization in percentage for reads
system.mem_ctrls0.busUtilWrite                   0.99                       # Data bus utilization in percentage for writes
system.mem_ctrls0.avgRdQLen                      1.27                       # Average read queue length when enqueuing
system.mem_ctrls0.avgWrQLen                      2.97                       # Average write queue length when enqueuing
system.mem_ctrls0.readRowHits                  253381                       # Number of row buffer hits during reads
system.mem_ctrls0.writeRowHits                 115906                       # Number of row buffer hits during writes
system.mem_ctrls0.readRowHitRate                76.84                       # Row buffer hit rate for reads
system.mem_ctrls0.writeRowHitRate               62.28                       # Row buffer hit rate for writes
system.mem_ctrls0.avgGap                    181523.22                       # Average gap between requests
system.mem_ctrls0.pageHitRate                   71.59                       # Row buffer hit rate, read and write combined
system.mem_ctrls0.memoryStateTime::IDLE   15212182000                       # Time in different power states
system.mem_ctrls0.memoryStateTime::REF     3127020000                       # Time in different power states
system.mem_ctrls0.memoryStateTime::PRE_PDN            0                       # Time in different power states
system.mem_ctrls0.memoryStateTime::ACT    75307031500                       # Time in different power states
system.mem_ctrls0.memoryStateTime::ACT_PDN            0                       # Time in different power states
system.mem_ctrls0.actEnergy::0              560778120                       # Energy for activate commands per rank (pJ)
system.mem_ctrls0.actEnergy::1              547215480                       # Energy for activate commands per rank (pJ)
system.mem_ctrls0.preEnergy::0              305980125                       # Energy for precharge commands per rank (pJ)
system.mem_ctrls0.preEnergy::1              298579875                       # Energy for precharge commands per rank (pJ)
system.mem_ctrls0.readEnergy::0            1290900000                       # Energy for read commands per rank (pJ)
system.mem_ctrls0.readEnergy::1            1281033000                       # Energy for read commands per rank (pJ)
system.mem_ctrls0.writeEnergy::0            604214640                       # Energy for write commands per rank (pJ)
system.mem_ctrls0.writeEnergy::1            601758720                       # Energy for write commands per rank (pJ)
system.mem_ctrls0.refreshEnergy::0         6116451120                       # Energy for refresh commands per rank (pJ)
system.mem_ctrls0.refreshEnergy::1         6116451120                       # Energy for refresh commands per rank (pJ)
system.mem_ctrls0.actBackEnergy::0        39089193525                       # Energy for active background per rank (pJ)
system.mem_ctrls0.actBackEnergy::1        38368868850                       # Energy for active background per rank (pJ)
system.mem_ctrls0.preBackEnergy::0        21898527000                       # Energy for precharge background per rank (pJ)
system.mem_ctrls0.preBackEnergy::1        22530390750                       # Energy for precharge background per rank (pJ)
system.mem_ctrls0.totalEnergy::0          69866044530                       # Total energy per rank (pJ)
system.mem_ctrls0.totalEnergy::1          69744297795                       # Total energy per rank (pJ)
system.mem_ctrls0.averagePower::0          746.069517                       # Core power per rank (mW)
system.mem_ctrls0.averagePower::1          744.769436                       # Core power per rank (mW)
system.mem_ctrls1.bytes_read::ruby.dir_cntrl1     20695040                       # Number of bytes read from this memory
system.mem_ctrls1.bytes_read::total          20695040                       # Number of bytes read from this memory
system.mem_ctrls1.bytes_written::ruby.dir_cntrl1     11494720                       # Number of bytes written to this memory
system.mem_ctrls1.bytes_written::total       11494720                       # Number of bytes written to this memory
system.mem_ctrls1.num_reads::ruby.dir_cntrl1       323360                       # Number of read requests responded to by this memory
system.mem_ctrls1.num_reads::total             323360                       # Number of read requests responded to by this memory
system.mem_ctrls1.num_writes::ruby.dir_cntrl1       179605                       # Number of write requests responded to by this memory
system.mem_ctrls1.num_writes::total            179605                       # Number of write requests responded to by this memory
system.mem_ctrls1.bw_read::ruby.dir_cntrl1    220984455                       # Total read bandwidth from this memory (bytes/s)
system.mem_ctrls1.bw_read::total            220984455                       # Total read bandwidth from this memory (bytes/s)
system.mem_ctrls1.bw_write::ruby.dir_cntrl1    122742186                       # Write bandwidth from this memory (bytes/s)
system.mem_ctrls1.bw_write::total           122742186                       # Write bandwidth from this memory (bytes/s)
system.mem_ctrls1.bw_total::ruby.dir_cntrl1    343726641                       # Total bandwidth to/from this memory (bytes/s)
system.mem_ctrls1.bw_total::total           343726641                       # Total bandwidth to/from this memory (bytes/s)
system.mem_ctrls1.readReqs                     323360                       # Number of read requests accepted
system.mem_ctrls1.writeReqs                    179605                       # Number of write requests accepted
system.mem_ctrls1.readBursts                   323360                       # Number of DRAM read bursts, including those serviced by the write queue
system.mem_ctrls1.writeBursts                  179605                       # Number of DRAM write bursts, including those merged in the write queue
system.mem_ctrls1.bytesReadDRAM              20692992                       # Total number of bytes read from DRAM
system.mem_ctrls1.bytesReadWrQ                   2048                       # Total number of bytes read from write queue
system.mem_ctrls1.bytesWritten               11494464                       # Total number of bytes written to DRAM
system.mem_ctrls1.bytesReadSys               20695040                       # Total read bytes from the system interface side
system.mem_ctrls1.bytesWrittenSys            11494720                       # Total written bytes from the system interface side
system.mem_ctrls1.servicedByWrQ                    32                       # Number of DRAM read bursts serviced by the write queue
system.mem_ctrls1.mergedWrBursts                    0                       # Number of DRAM write bursts merged with an existing one
system.mem_ctrls1.neitherReadNorWriteReqs            0                       # Number of requests that are neither read nor write
system.mem_ctrls1.perBankRdBursts::0            19946                       # Per bank write bursts
system.mem_ctrls1.perBankRdBursts::1            20524                       # Per bank write bursts
system.mem_ctrls1.perBankRdBursts::2            20108                       # Per bank write bursts
system.mem_ctrls1.perBankRdBursts::3            20456                       # Per bank write bursts
system.mem_ctrls1.perBankRdBursts::4            20120                       # Per bank write bursts
system.mem_ctrls1.perBankRdBursts::5            20611                       # Per bank write bursts
system.mem_ctrls1.perBankRdBursts::6            20237                       # Per bank write bursts
system.mem_ctrls1.perBankRdBursts::7            20421                       # Per bank write bursts
system.mem_ctrls1.perBankRdBursts::8            20250                       # Per bank write bursts
system.mem_ctrls1.perBankRdBursts::9            20430                       # Per bank write bursts
system.mem_ctrls1.perBankRdBursts::10           20198                       # Per bank write bursts
system.mem_ctrls1.perBankRdBursts::11           20518                       # Per bank write bursts
system.mem_ctrls1.perBankRdBursts::12           19798                       # Per bank write bursts
system.mem_ctrls1.perBankRdBursts::13           19748                       # Per bank write bursts
system.mem_ctrls1.perBankRdBursts::14           19929                       # Per bank write bursts
system.mem_ctrls1.perBankRdBursts::15           20034                       # Per bank write bursts
system.mem_ctrls1.perBankWrBursts::0            11106                       # Per bank write bursts
system.mem_ctrls1.perBankWrBursts::1            11263                       # Per bank write bursts
system.mem_ctrls1.perBankWrBursts::2            11273                       # Per bank write bursts
system.mem_ctrls1.perBankWrBursts::3            11246                       # Per bank write bursts
system.mem_ctrls1.perBankWrBursts::4            11217                       # Per bank write bursts
system.mem_ctrls1.perBankWrBursts::5            11524                       # Per bank write bursts
system.mem_ctrls1.perBankWrBursts::6            11137                       # Per bank write bursts
system.mem_ctrls1.perBankWrBursts::7            11265                       # Per bank write bursts
system.mem_ctrls1.perBankWrBursts::8            11490                       # Per bank write bursts
system.mem_ctrls1.perBankWrBursts::9            11300                       # Per bank write bursts
system.mem_ctrls1.perBankWrBursts::10           11127                       # Per bank write bursts
system.mem_ctrls1.perBankWrBursts::11           11299                       # Per bank write bursts
system.mem_ctrls1.perBankWrBursts::12           10951                       # Per bank write bursts
system.mem_ctrls1.perBankWrBursts::13           10912                       # Per bank write bursts
system.mem_ctrls1.perBankWrBursts::14           11294                       # Per bank write bursts
system.mem_ctrls1.perBankWrBursts::15           11197                       # Per bank write bursts
system.mem_ctrls1.numRdRetry                     6008                       # Number of times read queue was full causing retry
system.mem_ctrls1.numWrRetry                     2739                       # Number of times write queue was full causing retry
system.mem_ctrls1.totGap                  93648467500                       # Total gap between requests
system.mem_ctrls1.readPktSize::0                    0                       # Read request sizes (log2)
system.mem_ctrls1.readPktSize::1                    0                       # Read request sizes (log2)
system.mem_ctrls1.readPktSize::2                    0                       # Read request sizes (log2)
system.mem_ctrls1.readPktSize::3                    0                       # Read request sizes (log2)
system.mem_ctrls1.readPktSize::4                    0                       # Read request sizes (log2)
system.mem_ctrls1.readPktSize::5                    0                       # Read request sizes (log2)
system.mem_ctrls1.readPktSize::6               323360                       # Read request sizes (log2)
system.mem_ctrls1.writePktSize::0                   0                       # Write request sizes (log2)
system.mem_ctrls1.writePktSize::1                   0                       # Write request sizes (log2)
system.mem_ctrls1.writePktSize::2                   0                       # Write request sizes (log2)
system.mem_ctrls1.writePktSize::3                   0                       # Write request sizes (log2)
system.mem_ctrls1.writePktSize::4                   0                       # Write request sizes (log2)
system.mem_ctrls1.writePktSize::5                   0                       # Write request sizes (log2)
system.mem_ctrls1.writePktSize::6              179605                       # Write request sizes (log2)
system.mem_ctrls1.rdQLenPdf::0                 148244                       # What read queue length does an incoming req see
system.mem_ctrls1.rdQLenPdf::1                  30933                       # What read queue length does an incoming req see
system.mem_ctrls1.rdQLenPdf::2                  25187                       # What read queue length does an incoming req see
system.mem_ctrls1.rdQLenPdf::3                  19952                       # What read queue length does an incoming req see
system.mem_ctrls1.rdQLenPdf::4                  15553                       # What read queue length does an incoming req see
system.mem_ctrls1.rdQLenPdf::5                  12410                       # What read queue length does an incoming req see
system.mem_ctrls1.rdQLenPdf::6                   9784                       # What read queue length does an incoming req see
system.mem_ctrls1.rdQLenPdf::7                   8025                       # What read queue length does an incoming req see
system.mem_ctrls1.rdQLenPdf::8                   6513                       # What read queue length does an incoming req see
system.mem_ctrls1.rdQLenPdf::9                   5327                       # What read queue length does an incoming req see
system.mem_ctrls1.rdQLenPdf::10                  4639                       # What read queue length does an incoming req see
system.mem_ctrls1.rdQLenPdf::11                  3926                       # What read queue length does an incoming req see
system.mem_ctrls1.rdQLenPdf::12                  3332                       # What read queue length does an incoming req see
system.mem_ctrls1.rdQLenPdf::13                  2860                       # What read queue length does an incoming req see
system.mem_ctrls1.rdQLenPdf::14                  2488                       # What read queue length does an incoming req see
system.mem_ctrls1.rdQLenPdf::15                  2275                       # What read queue length does an incoming req see
system.mem_ctrls1.rdQLenPdf::16                  1996                       # What read queue length does an incoming req see
system.mem_ctrls1.rdQLenPdf::17                  1750                       # What read queue length does an incoming req see
system.mem_ctrls1.rdQLenPdf::18                  1535                       # What read queue length does an incoming req see
system.mem_ctrls1.rdQLenPdf::19                  1374                       # What read queue length does an incoming req see
system.mem_ctrls1.rdQLenPdf::20                  1217                       # What read queue length does an incoming req see
system.mem_ctrls1.rdQLenPdf::21                  1084                       # What read queue length does an incoming req see
system.mem_ctrls1.rdQLenPdf::22                   947                       # What read queue length does an incoming req see
system.mem_ctrls1.rdQLenPdf::23                   888                       # What read queue length does an incoming req see
system.mem_ctrls1.rdQLenPdf::24                   795                       # What read queue length does an incoming req see
system.mem_ctrls1.rdQLenPdf::25                   754                       # What read queue length does an incoming req see
system.mem_ctrls1.rdQLenPdf::26                   699                       # What read queue length does an incoming req see
system.mem_ctrls1.rdQLenPdf::27                   624                       # What read queue length does an incoming req see
system.mem_ctrls1.rdQLenPdf::28                   553                       # What read queue length does an incoming req see
system.mem_ctrls1.rdQLenPdf::29                   527                       # What read queue length does an incoming req see
system.mem_ctrls1.rdQLenPdf::30                   546                       # What read queue length does an incoming req see
system.mem_ctrls1.rdQLenPdf::31                  6591                       # What read queue length does an incoming req see
system.mem_ctrls1.wrQLenPdf::0                  31275                       # What write queue length does an incoming req see
system.mem_ctrls1.wrQLenPdf::1                  33317                       # What write queue length does an incoming req see
system.mem_ctrls1.wrQLenPdf::2                  34070                       # What write queue length does an incoming req see
system.mem_ctrls1.wrQLenPdf::3                  34260                       # What write queue length does an incoming req see
system.mem_ctrls1.wrQLenPdf::4                  34132                       # What write queue length does an incoming req see
system.mem_ctrls1.wrQLenPdf::5                   4333                       # What write queue length does an incoming req see
system.mem_ctrls1.wrQLenPdf::6                   3286                       # What write queue length does an incoming req see
system.mem_ctrls1.wrQLenPdf::7                   4932                       # What write queue length does an incoming req see
system.mem_ctrls1.bytesPerActivate::samples       138014                       # Bytes accessed per row activation
system.mem_ctrls1.bytesPerActivate::mean   233.213674                       # Bytes accessed per row activation
system.mem_ctrls1.bytesPerActivate::gmean   173.043921                       # Bytes accessed per row activation
system.mem_ctrls1.bytesPerActivate::stdev   193.893792                       # Bytes accessed per row activation
system.mem_ctrls1.bytesPerActivate::0-127        39856     28.88%     28.88% # Bytes accessed per row activation
system.mem_ctrls1.bytesPerActivate::128-255        37824     27.41%     56.28% # Bytes accessed per row activation
system.mem_ctrls1.bytesPerActivate::256-383        41768     30.26%     86.55% # Bytes accessed per row activation
system.mem_ctrls1.bytesPerActivate::384-511         6824      4.94%     91.49% # Bytes accessed per row activation
system.mem_ctrls1.bytesPerActivate::512-639         4355      3.16%     94.65% # Bytes accessed per row activation
system.mem_ctrls1.bytesPerActivate::640-767         2352      1.70%     96.35% # Bytes accessed per row activation
system.mem_ctrls1.bytesPerActivate::768-895         1574      1.14%     97.49% # Bytes accessed per row activation
system.mem_ctrls1.bytesPerActivate::896-1023         1099      0.80%     98.29% # Bytes accessed per row activation
system.mem_ctrls1.bytesPerActivate::1024-1151         2362      1.71%    100.00% # Bytes accessed per row activation
system.mem_ctrls1.bytesPerActivate::total       138014                       # Bytes accessed per row activation
system.mem_ctrls1.rdPerTurnAround::samples        31593                       # Reads before turning the bus around for writes
system.mem_ctrls1.rdPerTurnAround::mean     10.233374                       # Reads before turning the bus around for writes
system.mem_ctrls1.rdPerTurnAround::stdev    20.620050                       # Reads before turning the bus around for writes
system.mem_ctrls1.rdPerTurnAround::0-127        31586     99.98%     99.98% # Reads before turning the bus around for writes
system.mem_ctrls1.rdPerTurnAround::128-255            5      0.02%     99.99% # Reads before turning the bus around for writes
system.mem_ctrls1.rdPerTurnAround::1152-1279            1      0.00%    100.00% # Reads before turning the bus around for writes
system.mem_ctrls1.rdPerTurnAround::2816-2943            1      0.00%    100.00% # Reads before turning the bus around for writes
system.mem_ctrls1.rdPerTurnAround::total        31593                       # Reads before turning the bus around for writes
system.mem_ctrls1.wrPerTurnAround::samples        31593                       # Writes before turning the bus around for reads
system.mem_ctrls1.wrPerTurnAround::mean      5.684835                       # Writes before turning the bus around for reads
system.mem_ctrls1.wrPerTurnAround::gmean     5.491858                       # Writes before turning the bus around for reads
system.mem_ctrls1.wrPerTurnAround::stdev     1.910879                       # Writes before turning the bus around for reads
system.mem_ctrls1.wrPerTurnAround::4-7          28615     90.57%     90.57% # Writes before turning the bus around for reads
system.mem_ctrls1.wrPerTurnAround::8-11          2004      6.34%     96.92% # Writes before turning the bus around for reads
system.mem_ctrls1.wrPerTurnAround::12-15          561      1.78%     98.69% # Writes before turning the bus around for reads
system.mem_ctrls1.wrPerTurnAround::16-19          413      1.31%    100.00% # Writes before turning the bus around for reads
system.mem_ctrls1.wrPerTurnAround::total        31593                       # Writes before turning the bus around for reads
system.mem_ctrls1.totQLat                 15142135071                       # Total ticks spent queuing
system.mem_ctrls1.totMemAccLat            21204535071                       # Total ticks spent from burst creation until serviced by the DRAM
system.mem_ctrls1.totBusLat                1616640000                       # Total ticks spent in databus transfers
system.mem_ctrls1.avgQLat                    46832.12                       # Average queueing delay per DRAM burst
system.mem_ctrls1.avgBusLat                   5000.00                       # Average bus latency per DRAM burst
system.mem_ctrls1.avgMemAccLat               65582.12                       # Average memory access latency per DRAM burst
system.mem_ctrls1.avgRdBW                      220.96                       # Average DRAM read bandwidth in MiByte/s
system.mem_ctrls1.avgWrBW                      122.74                       # Average achieved write bandwidth in MiByte/s
system.mem_ctrls1.avgRdBWSys                   220.98                       # Average system read bandwidth in MiByte/s
system.mem_ctrls1.avgWrBWSys                   122.74                       # Average system write bandwidth in MiByte/s
system.mem_ctrls1.peakBW                     12800.00                       # Theoretical peak bandwidth in MiByte/s
system.mem_ctrls1.busUtil                        2.69                       # Data bus utilization in percentage
system.mem_ctrls1.busUtilRead                    1.73                       # Data bus utilization in percentage for reads
system.mem_ctrls1.busUtilWrite                   0.96                       # Data bus utilization in percentage for writes
system.mem_ctrls1.avgRdQLen                      1.26                       # Average read queue length when enqueuing
system.mem_ctrls1.avgWrQLen                      2.98                       # Average write queue length when enqueuing
system.mem_ctrls1.readRowHits                  250359                       # Number of row buffer hits during reads
system.mem_ctrls1.writeRowHits                 114549                       # Number of row buffer hits during writes
system.mem_ctrls1.readRowHitRate                77.43                       # Row buffer hit rate for reads
system.mem_ctrls1.writeRowHitRate               63.78                       # Row buffer hit rate for writes
system.mem_ctrls1.avgGap                    186192.81                       # Average gap between requests
system.mem_ctrls1.pageHitRate                   72.56                       # Row buffer hit rate, read and write combined
system.mem_ctrls1.memoryStateTime::IDLE   15396876750                       # Time in different power states
system.mem_ctrls1.memoryStateTime::REF     3127020000                       # Time in different power states
system.mem_ctrls1.memoryStateTime::PRE_PDN            0                       # Time in different power states
system.mem_ctrls1.memoryStateTime::ACT    75121997250                       # Time in different power states
system.mem_ctrls1.memoryStateTime::ACT_PDN            0                       # Time in different power states
system.mem_ctrls1.actEnergy::0              527892120                       # Energy for activate commands per rank (pJ)
system.mem_ctrls1.actEnergy::1              515478600                       # Energy for activate commands per rank (pJ)
system.mem_ctrls1.preEnergy::0              288036375                       # Energy for precharge commands per rank (pJ)
system.mem_ctrls1.preEnergy::1              281263125                       # Energy for precharge commands per rank (pJ)
system.mem_ctrls1.readEnergy::0            1266813600                       # Energy for read commands per rank (pJ)
system.mem_ctrls1.readEnergy::1            1255020000                       # Energy for read commands per rank (pJ)
system.mem_ctrls1.writeEnergy::0            583400880                       # Energy for write commands per rank (pJ)
system.mem_ctrls1.writeEnergy::1            580413600                       # Energy for write commands per rank (pJ)
system.mem_ctrls1.refreshEnergy::0         6116451120                       # Energy for refresh commands per rank (pJ)
system.mem_ctrls1.refreshEnergy::1         6116451120                       # Energy for refresh commands per rank (pJ)
system.mem_ctrls1.actBackEnergy::0        38589590520                       # Energy for active background per rank (pJ)
system.mem_ctrls1.actBackEnergy::1        37633597920                       # Energy for active background per rank (pJ)
system.mem_ctrls1.preBackEnergy::0        22336775250                       # Energy for precharge background per rank (pJ)
system.mem_ctrls1.preBackEnergy::1        23175365250                       # Energy for precharge background per rank (pJ)
system.mem_ctrls1.totalEnergy::0          69708959865                       # Total energy per rank (pJ)
system.mem_ctrls1.totalEnergy::1          69557589615                       # Total energy per rank (pJ)
system.mem_ctrls1.averagePower::0          744.392077                       # Core power per rank (mW)
system.mem_ctrls1.averagePower::1          742.775659                       # Core power per rank (mW)
system.mem_ctrls2.bytes_read::ruby.dir_cntrl2     20696768                       # Number of bytes read from this memory
system.mem_ctrls2.bytes_read::total          20696768                       # Number of bytes read from this memory
system.mem_ctrls2.bytes_written::ruby.dir_cntrl2     11494784                       # Number of bytes written to this memory
system.mem_ctrls2.bytes_written::total       11494784                       # Number of bytes written to this memory
system.mem_ctrls2.num_reads::ruby.dir_cntrl2       323387                       # Number of read requests responded to by this memory
system.mem_ctrls2.num_reads::total             323387                       # Number of read requests responded to by this memory
system.mem_ctrls2.num_writes::ruby.dir_cntrl2       179606                       # Number of write requests responded to by this memory
system.mem_ctrls2.num_writes::total            179606                       # Number of write requests responded to by this memory
system.mem_ctrls2.bw_read::ruby.dir_cntrl2    221002907                       # Total read bandwidth from this memory (bytes/s)
system.mem_ctrls2.bw_read::total            221002907                       # Total read bandwidth from this memory (bytes/s)
system.mem_ctrls2.bw_write::ruby.dir_cntrl2    122742869                       # Write bandwidth from this memory (bytes/s)
system.mem_ctrls2.bw_write::total           122742869                       # Write bandwidth from this memory (bytes/s)
system.mem_ctrls2.bw_total::ruby.dir_cntrl2    343745776                       # Total bandwidth to/from this memory (bytes/s)
system.mem_ctrls2.bw_total::total           343745776                       # Total bandwidth to/from this memory (bytes/s)
system.mem_ctrls2.readReqs                     323387                       # Number of read requests accepted
system.mem_ctrls2.writeReqs                    179606                       # Number of write requests accepted
system.mem_ctrls2.readBursts                   323387                       # Number of DRAM read bursts, including those serviced by the write queue
system.mem_ctrls2.writeBursts                  179606                       # Number of DRAM write bursts, including those merged in the write queue
system.mem_ctrls2.bytesReadDRAM              20695808                       # Total number of bytes read from DRAM
system.mem_ctrls2.bytesReadWrQ                    960                       # Total number of bytes read from write queue
system.mem_ctrls2.bytesWritten               11494528                       # Total number of bytes written to DRAM
system.mem_ctrls2.bytesReadSys               20696768                       # Total read bytes from the system interface side
system.mem_ctrls2.bytesWrittenSys            11494784                       # Total written bytes from the system interface side
system.mem_ctrls2.servicedByWrQ                    15                       # Number of DRAM read bursts serviced by the write queue
system.mem_ctrls2.mergedWrBursts                    0                       # Number of DRAM write bursts merged with an existing one
system.mem_ctrls2.neitherReadNorWriteReqs            0                       # Number of requests that are neither read nor write
system.mem_ctrls2.perBankRdBursts::0            19955                       # Per bank write bursts
system.mem_ctrls2.perBankRdBursts::1            20554                       # Per bank write bursts
system.mem_ctrls2.perBankRdBursts::2            20138                       # Per bank write bursts
system.mem_ctrls2.perBankRdBursts::3            20503                       # Per bank write bursts
system.mem_ctrls2.perBankRdBursts::4            20154                       # Per bank write bursts
system.mem_ctrls2.perBankRdBursts::5            20598                       # Per bank write bursts
system.mem_ctrls2.perBankRdBursts::6            20235                       # Per bank write bursts
system.mem_ctrls2.perBankRdBursts::7            20354                       # Per bank write bursts
system.mem_ctrls2.perBankRdBursts::8            20221                       # Per bank write bursts
system.mem_ctrls2.perBankRdBursts::9            20448                       # Per bank write bursts
system.mem_ctrls2.perBankRdBursts::10           20203                       # Per bank write bursts
system.mem_ctrls2.perBankRdBursts::11           20534                       # Per bank write bursts
system.mem_ctrls2.perBankRdBursts::12           19823                       # Per bank write bursts
system.mem_ctrls2.perBankRdBursts::13           19690                       # Per bank write bursts
system.mem_ctrls2.perBankRdBursts::14           19923                       # Per bank write bursts
system.mem_ctrls2.perBankRdBursts::15           20039                       # Per bank write bursts
system.mem_ctrls2.perBankWrBursts::0            11109                       # Per bank write bursts
system.mem_ctrls2.perBankWrBursts::1            11259                       # Per bank write bursts
system.mem_ctrls2.perBankWrBursts::2            11260                       # Per bank write bursts
system.mem_ctrls2.perBankWrBursts::3            11268                       # Per bank write bursts
system.mem_ctrls2.perBankWrBursts::4            11208                       # Per bank write bursts
system.mem_ctrls2.perBankWrBursts::5            11507                       # Per bank write bursts
system.mem_ctrls2.perBankWrBursts::6            11151                       # Per bank write bursts
system.mem_ctrls2.perBankWrBursts::7            11267                       # Per bank write bursts
system.mem_ctrls2.perBankWrBursts::8            11461                       # Per bank write bursts
system.mem_ctrls2.perBankWrBursts::9            11315                       # Per bank write bursts
system.mem_ctrls2.perBankWrBursts::10           11113                       # Per bank write bursts
system.mem_ctrls2.perBankWrBursts::11           11317                       # Per bank write bursts
system.mem_ctrls2.perBankWrBursts::12           10962                       # Per bank write bursts
system.mem_ctrls2.perBankWrBursts::13           10908                       # Per bank write bursts
system.mem_ctrls2.perBankWrBursts::14           11293                       # Per bank write bursts
system.mem_ctrls2.perBankWrBursts::15           11204                       # Per bank write bursts
system.mem_ctrls2.numRdRetry                     4999                       # Number of times read queue was full causing retry
system.mem_ctrls2.numWrRetry                     2541                       # Number of times write queue was full causing retry
system.mem_ctrls2.totGap                  93649160500                       # Total gap between requests
system.mem_ctrls2.readPktSize::0                    0                       # Read request sizes (log2)
system.mem_ctrls2.readPktSize::1                    0                       # Read request sizes (log2)
system.mem_ctrls2.readPktSize::2                    0                       # Read request sizes (log2)
system.mem_ctrls2.readPktSize::3                    0                       # Read request sizes (log2)
system.mem_ctrls2.readPktSize::4                    0                       # Read request sizes (log2)
system.mem_ctrls2.readPktSize::5                    0                       # Read request sizes (log2)
system.mem_ctrls2.readPktSize::6               323387                       # Read request sizes (log2)
system.mem_ctrls2.writePktSize::0                   0                       # Write request sizes (log2)
system.mem_ctrls2.writePktSize::1                   0                       # Write request sizes (log2)
system.mem_ctrls2.writePktSize::2                   0                       # Write request sizes (log2)
system.mem_ctrls2.writePktSize::3                   0                       # Write request sizes (log2)
system.mem_ctrls2.writePktSize::4                   0                       # Write request sizes (log2)
system.mem_ctrls2.writePktSize::5                   0                       # Write request sizes (log2)
system.mem_ctrls2.writePktSize::6              179606                       # Write request sizes (log2)
system.mem_ctrls2.rdQLenPdf::0                 148429                       # What read queue length does an incoming req see
system.mem_ctrls2.rdQLenPdf::1                  30543                       # What read queue length does an incoming req see
system.mem_ctrls2.rdQLenPdf::2                  25332                       # What read queue length does an incoming req see
system.mem_ctrls2.rdQLenPdf::3                  19883                       # What read queue length does an incoming req see
system.mem_ctrls2.rdQLenPdf::4                  15643                       # What read queue length does an incoming req see
system.mem_ctrls2.rdQLenPdf::5                  12546                       # What read queue length does an incoming req see
system.mem_ctrls2.rdQLenPdf::6                  10066                       # What read queue length does an incoming req see
system.mem_ctrls2.rdQLenPdf::7                   8161                       # What read queue length does an incoming req see
system.mem_ctrls2.rdQLenPdf::8                   6704                       # What read queue length does an incoming req see
system.mem_ctrls2.rdQLenPdf::9                   5415                       # What read queue length does an incoming req see
system.mem_ctrls2.rdQLenPdf::10                  4637                       # What read queue length does an incoming req see
system.mem_ctrls2.rdQLenPdf::11                  3987                       # What read queue length does an incoming req see
system.mem_ctrls2.rdQLenPdf::12                  3460                       # What read queue length does an incoming req see
system.mem_ctrls2.rdQLenPdf::13                  2943                       # What read queue length does an incoming req see
system.mem_ctrls2.rdQLenPdf::14                  2618                       # What read queue length does an incoming req see
system.mem_ctrls2.rdQLenPdf::15                  2280                       # What read queue length does an incoming req see
system.mem_ctrls2.rdQLenPdf::16                  1927                       # What read queue length does an incoming req see
system.mem_ctrls2.rdQLenPdf::17                  1719                       # What read queue length does an incoming req see
system.mem_ctrls2.rdQLenPdf::18                  1507                       # What read queue length does an incoming req see
system.mem_ctrls2.rdQLenPdf::19                  1382                       # What read queue length does an incoming req see
system.mem_ctrls2.rdQLenPdf::20                  1191                       # What read queue length does an incoming req see
system.mem_ctrls2.rdQLenPdf::21                  1083                       # What read queue length does an incoming req see
system.mem_ctrls2.rdQLenPdf::22                   971                       # What read queue length does an incoming req see
system.mem_ctrls2.rdQLenPdf::23                   895                       # What read queue length does an incoming req see
system.mem_ctrls2.rdQLenPdf::24                   777                       # What read queue length does an incoming req see
system.mem_ctrls2.rdQLenPdf::25                   702                       # What read queue length does an incoming req see
system.mem_ctrls2.rdQLenPdf::26                   663                       # What read queue length does an incoming req see
system.mem_ctrls2.rdQLenPdf::27                   647                       # What read queue length does an incoming req see
system.mem_ctrls2.rdQLenPdf::28                   622                       # What read queue length does an incoming req see
system.mem_ctrls2.rdQLenPdf::29                   553                       # What read queue length does an incoming req see
system.mem_ctrls2.rdQLenPdf::30                   517                       # What read queue length does an incoming req see
system.mem_ctrls2.rdQLenPdf::31                  5569                       # What read queue length does an incoming req see
system.mem_ctrls2.wrQLenPdf::0                  31278                       # What write queue length does an incoming req see
system.mem_ctrls2.wrQLenPdf::1                  33268                       # What write queue length does an incoming req see
system.mem_ctrls2.wrQLenPdf::2                  34036                       # What write queue length does an incoming req see
system.mem_ctrls2.wrQLenPdf::3                  34314                       # What write queue length does an incoming req see
system.mem_ctrls2.wrQLenPdf::4                  34095                       # What write queue length does an incoming req see
system.mem_ctrls2.wrQLenPdf::5                   4423                       # What write queue length does an incoming req see
system.mem_ctrls2.wrQLenPdf::6                   3453                       # What write queue length does an incoming req see
system.mem_ctrls2.wrQLenPdf::7                   4739                       # What write queue length does an incoming req see
system.mem_ctrls2.bytesPerActivate::samples       137586                       # Bytes accessed per row activation
system.mem_ctrls2.bytesPerActivate::mean   233.961944                       # Bytes accessed per row activation
system.mem_ctrls2.bytesPerActivate::gmean   173.801172                       # Bytes accessed per row activation
system.mem_ctrls2.bytesPerActivate::stdev   193.638151                       # Bytes accessed per row activation
system.mem_ctrls2.bytesPerActivate::0-127        39507     28.71%     28.71% # Bytes accessed per row activation
system.mem_ctrls2.bytesPerActivate::128-255        37354     27.15%     55.86% # Bytes accessed per row activation
system.mem_ctrls2.bytesPerActivate::256-383        42107     30.60%     86.47% # Bytes accessed per row activation
system.mem_ctrls2.bytesPerActivate::384-511         6819      4.96%     91.42% # Bytes accessed per row activation
system.mem_ctrls2.bytesPerActivate::512-639         4390      3.19%     94.62% # Bytes accessed per row activation
system.mem_ctrls2.bytesPerActivate::640-767         2388      1.74%     96.35% # Bytes accessed per row activation
system.mem_ctrls2.bytesPerActivate::768-895         1608      1.17%     97.52% # Bytes accessed per row activation
system.mem_ctrls2.bytesPerActivate::896-1023         1139      0.83%     98.35% # Bytes accessed per row activation
system.mem_ctrls2.bytesPerActivate::1024-1151         2274      1.65%    100.00% # Bytes accessed per row activation
system.mem_ctrls2.bytesPerActivate::total       137586                       # Bytes accessed per row activation
system.mem_ctrls2.rdPerTurnAround::samples        31555                       # Reads before turning the bus around for writes
system.mem_ctrls2.rdPerTurnAround::mean     10.246775                       # Reads before turning the bus around for writes
system.mem_ctrls2.rdPerTurnAround::stdev    20.659131                       # Reads before turning the bus around for writes
system.mem_ctrls2.rdPerTurnAround::0-127        31550     99.98%     99.98% # Reads before turning the bus around for writes
system.mem_ctrls2.rdPerTurnAround::128-255            3      0.01%     99.99% # Reads before turning the bus around for writes
system.mem_ctrls2.rdPerTurnAround::1152-1279            1      0.00%    100.00% # Reads before turning the bus around for writes
system.mem_ctrls2.rdPerTurnAround::2816-2943            1      0.00%    100.00% # Reads before turning the bus around for writes
system.mem_ctrls2.rdPerTurnAround::total        31555                       # Reads before turning the bus around for writes
system.mem_ctrls2.wrPerTurnAround::samples        31555                       # Writes before turning the bus around for reads
system.mem_ctrls2.wrPerTurnAround::mean      5.691713                       # Writes before turning the bus around for reads
system.mem_ctrls2.wrPerTurnAround::gmean     5.499385                       # Writes before turning the bus around for reads
system.mem_ctrls2.wrPerTurnAround::stdev     1.898090                       # Writes before turning the bus around for reads
system.mem_ctrls2.wrPerTurnAround::4-7          28509     90.35%     90.35% # Writes before turning the bus around for reads
system.mem_ctrls2.wrPerTurnAround::8-11          2086      6.61%     96.96% # Writes before turning the bus around for reads
system.mem_ctrls2.wrPerTurnAround::12-15          597      1.89%     98.85% # Writes before turning the bus around for reads
system.mem_ctrls2.wrPerTurnAround::16-19          363      1.15%    100.00% # Writes before turning the bus around for reads
system.mem_ctrls2.wrPerTurnAround::total        31555                       # Writes before turning the bus around for reads
system.mem_ctrls2.totQLat                 14940946303                       # Total ticks spent queuing
system.mem_ctrls2.totMemAccLat            21004171303                       # Total ticks spent from burst creation until serviced by the DRAM
system.mem_ctrls2.totBusLat                1616860000                       # Total ticks spent in databus transfers
system.mem_ctrls2.avgQLat                    46203.59                       # Average queueing delay per DRAM burst
system.mem_ctrls2.avgBusLat                   5000.00                       # Average bus latency per DRAM burst
system.mem_ctrls2.avgMemAccLat               64953.59                       # Average memory access latency per DRAM burst
system.mem_ctrls2.avgRdBW                      220.99                       # Average DRAM read bandwidth in MiByte/s
system.mem_ctrls2.avgWrBW                      122.74                       # Average achieved write bandwidth in MiByte/s
system.mem_ctrls2.avgRdBWSys                   221.00                       # Average system read bandwidth in MiByte/s
system.mem_ctrls2.avgWrBWSys                   122.74                       # Average system write bandwidth in MiByte/s
system.mem_ctrls2.peakBW                     12800.00                       # Theoretical peak bandwidth in MiByte/s
system.mem_ctrls2.busUtil                        2.69                       # Data bus utilization in percentage
system.mem_ctrls2.busUtilRead                    1.73                       # Data bus utilization in percentage for reads
system.mem_ctrls2.busUtilWrite                   0.96                       # Data bus utilization in percentage for writes
system.mem_ctrls2.avgRdQLen                      1.25                       # Average read queue length when enqueuing
system.mem_ctrls2.avgWrQLen                      2.98                       # Average write queue length when enqueuing
system.mem_ctrls2.readRowHits                  250475                       # Number of row buffer hits during reads
system.mem_ctrls2.writeRowHits                 114907                       # Number of row buffer hits during writes
system.mem_ctrls2.readRowHitRate                77.46                       # Row buffer hit rate for reads
system.mem_ctrls2.writeRowHitRate               63.98                       # Row buffer hit rate for writes
system.mem_ctrls2.avgGap                    186183.82                       # Average gap between requests
system.mem_ctrls2.pageHitRate                   72.64                       # Row buffer hit rate, read and write combined
system.mem_ctrls2.memoryStateTime::IDLE   15448683750                       # Time in different power states
system.mem_ctrls2.memoryStateTime::REF     3127020000                       # Time in different power states
system.mem_ctrls2.memoryStateTime::PRE_PDN            0                       # Time in different power states
system.mem_ctrls2.memoryStateTime::ACT    75070074250                       # Time in different power states
system.mem_ctrls2.memoryStateTime::ACT_PDN            0                       # Time in different power states
system.mem_ctrls2.actEnergy::0              526554000                       # Energy for activate commands per rank (pJ)
system.mem_ctrls2.actEnergy::1              513581040                       # Energy for activate commands per rank (pJ)
system.mem_ctrls2.preEnergy::0              287306250                       # Energy for precharge commands per rank (pJ)
system.mem_ctrls2.preEnergy::1              280227750                       # Energy for precharge commands per rank (pJ)
system.mem_ctrls2.readEnergy::0            1267359600                       # Energy for read commands per rank (pJ)
system.mem_ctrls2.readEnergy::1            1254848400                       # Energy for read commands per rank (pJ)
system.mem_ctrls2.writeEnergy::0            583387920                       # Energy for write commands per rank (pJ)
system.mem_ctrls2.writeEnergy::1            580433040                       # Energy for write commands per rank (pJ)
system.mem_ctrls2.refreshEnergy::0         6116451120                       # Energy for refresh commands per rank (pJ)
system.mem_ctrls2.refreshEnergy::1         6116451120                       # Energy for refresh commands per rank (pJ)
system.mem_ctrls2.actBackEnergy::0        38474316000                       # Energy for active background per rank (pJ)
system.mem_ctrls2.actBackEnergy::1        37557736335                       # Energy for active background per rank (pJ)
system.mem_ctrls2.preBackEnergy::0        22437893250                       # Energy for precharge background per rank (pJ)
system.mem_ctrls2.preBackEnergy::1        23241910500                       # Energy for precharge background per rank (pJ)
system.mem_ctrls2.totalEnergy::0          69693268140                       # Total energy per rank (pJ)
system.mem_ctrls2.totalEnergy::1          69545188185                       # Total energy per rank (pJ)
system.mem_ctrls2.averagePower::0          744.224512                       # Core power per rank (mW)
system.mem_ctrls2.averagePower::1          742.643229                       # Core power per rank (mW)
system.mem_ctrls3.bytes_read::ruby.dir_cntrl3     20666368                       # Number of bytes read from this memory
system.mem_ctrls3.bytes_read::total          20666368                       # Number of bytes read from this memory
system.mem_ctrls3.bytes_written::ruby.dir_cntrl3     11490112                       # Number of bytes written to this memory
system.mem_ctrls3.bytes_written::total       11490112                       # Number of bytes written to this memory
system.mem_ctrls3.num_reads::ruby.dir_cntrl3       322912                       # Number of read requests responded to by this memory
system.mem_ctrls3.num_reads::total             322912                       # Number of read requests responded to by this memory
system.mem_ctrls3.num_writes::ruby.dir_cntrl3       179533                       # Number of write requests responded to by this memory
system.mem_ctrls3.num_writes::total            179533                       # Number of write requests responded to by this memory
system.mem_ctrls3.bw_read::ruby.dir_cntrl3    220678292                       # Total read bandwidth from this memory (bytes/s)
system.mem_ctrls3.bw_read::total            220678292                       # Total read bandwidth from this memory (bytes/s)
system.mem_ctrls3.bw_write::ruby.dir_cntrl3    122692981                       # Write bandwidth from this memory (bytes/s)
system.mem_ctrls3.bw_write::total           122692981                       # Write bandwidth from this memory (bytes/s)
system.mem_ctrls3.bw_total::ruby.dir_cntrl3    343371273                       # Total bandwidth to/from this memory (bytes/s)
system.mem_ctrls3.bw_total::total           343371273                       # Total bandwidth to/from this memory (bytes/s)
system.mem_ctrls3.readReqs                     322913                       # Number of read requests accepted
system.mem_ctrls3.writeReqs                    179533                       # Number of write requests accepted
system.mem_ctrls3.readBursts                   322913                       # Number of DRAM read bursts, including those serviced by the write queue
system.mem_ctrls3.writeBursts                  179533                       # Number of DRAM write bursts, including those merged in the write queue
system.mem_ctrls3.bytesReadDRAM              20665728                       # Total number of bytes read from DRAM
system.mem_ctrls3.bytesReadWrQ                    704                       # Total number of bytes read from write queue
system.mem_ctrls3.bytesWritten               11489856                       # Total number of bytes written to DRAM
system.mem_ctrls3.bytesReadSys               20666432                       # Total read bytes from the system interface side
system.mem_ctrls3.bytesWrittenSys            11490112                       # Total written bytes from the system interface side
system.mem_ctrls3.servicedByWrQ                    11                       # Number of DRAM read bursts serviced by the write queue
system.mem_ctrls3.mergedWrBursts                    0                       # Number of DRAM write bursts merged with an existing one
system.mem_ctrls3.neitherReadNorWriteReqs            0                       # Number of requests that are neither read nor write
system.mem_ctrls3.perBankRdBursts::0            19947                       # Per bank write bursts
system.mem_ctrls3.perBankRdBursts::1            20552                       # Per bank write bursts
system.mem_ctrls3.perBankRdBursts::2            20027                       # Per bank write bursts
system.mem_ctrls3.perBankRdBursts::3            20458                       # Per bank write bursts
system.mem_ctrls3.perBankRdBursts::4            20043                       # Per bank write bursts
system.mem_ctrls3.perBankRdBursts::5            20549                       # Per bank write bursts
system.mem_ctrls3.perBankRdBursts::6            20224                       # Per bank write bursts
system.mem_ctrls3.perBankRdBursts::7            20328                       # Per bank write bursts
system.mem_ctrls3.perBankRdBursts::8            20217                       # Per bank write bursts
system.mem_ctrls3.perBankRdBursts::9            20450                       # Per bank write bursts
system.mem_ctrls3.perBankRdBursts::10           20238                       # Per bank write bursts
system.mem_ctrls3.perBankRdBursts::11           20471                       # Per bank write bursts
system.mem_ctrls3.perBankRdBursts::12           19786                       # Per bank write bursts
system.mem_ctrls3.perBankRdBursts::13           19659                       # Per bank write bursts
system.mem_ctrls3.perBankRdBursts::14           19936                       # Per bank write bursts
system.mem_ctrls3.perBankRdBursts::15           20017                       # Per bank write bursts
system.mem_ctrls3.perBankWrBursts::0            11096                       # Per bank write bursts
system.mem_ctrls3.perBankWrBursts::1            11260                       # Per bank write bursts
system.mem_ctrls3.perBankWrBursts::2            11267                       # Per bank write bursts
system.mem_ctrls3.perBankWrBursts::3            11252                       # Per bank write bursts
system.mem_ctrls3.perBankWrBursts::4            11208                       # Per bank write bursts
system.mem_ctrls3.perBankWrBursts::5            11508                       # Per bank write bursts
system.mem_ctrls3.perBankWrBursts::6            11138                       # Per bank write bursts
system.mem_ctrls3.perBankWrBursts::7            11252                       # Per bank write bursts
system.mem_ctrls3.perBankWrBursts::8            11458                       # Per bank write bursts
system.mem_ctrls3.perBankWrBursts::9            11317                       # Per bank write bursts
system.mem_ctrls3.perBankWrBursts::10           11108                       # Per bank write bursts
system.mem_ctrls3.perBankWrBursts::11           11313                       # Per bank write bursts
system.mem_ctrls3.perBankWrBursts::12           10961                       # Per bank write bursts
system.mem_ctrls3.perBankWrBursts::13           10905                       # Per bank write bursts
system.mem_ctrls3.perBankWrBursts::14           11293                       # Per bank write bursts
system.mem_ctrls3.perBankWrBursts::15           11193                       # Per bank write bursts
system.mem_ctrls3.numRdRetry                     6709                       # Number of times read queue was full causing retry
system.mem_ctrls3.numWrRetry                     2835                       # Number of times write queue was full causing retry
system.mem_ctrls3.totGap                  93648560500                       # Total gap between requests
system.mem_ctrls3.readPktSize::0                    0                       # Read request sizes (log2)
system.mem_ctrls3.readPktSize::1                    0                       # Read request sizes (log2)
system.mem_ctrls3.readPktSize::2                    0                       # Read request sizes (log2)
system.mem_ctrls3.readPktSize::3                    0                       # Read request sizes (log2)
system.mem_ctrls3.readPktSize::4                    0                       # Read request sizes (log2)
system.mem_ctrls3.readPktSize::5                    0                       # Read request sizes (log2)
system.mem_ctrls3.readPktSize::6               322913                       # Read request sizes (log2)
system.mem_ctrls3.writePktSize::0                   0                       # Write request sizes (log2)
system.mem_ctrls3.writePktSize::1                   0                       # Write request sizes (log2)
system.mem_ctrls3.writePktSize::2                   0                       # Write request sizes (log2)
system.mem_ctrls3.writePktSize::3                   0                       # Write request sizes (log2)
system.mem_ctrls3.writePktSize::4                   0                       # Write request sizes (log2)
system.mem_ctrls3.writePktSize::5                   0                       # Write request sizes (log2)
system.mem_ctrls3.writePktSize::6              179533                       # Write request sizes (log2)
system.mem_ctrls3.rdQLenPdf::0                 147784                       # What read queue length does an incoming req see
system.mem_ctrls3.rdQLenPdf::1                  30558                       # What read queue length does an incoming req see
system.mem_ctrls3.rdQLenPdf::2                  25131                       # What read queue length does an incoming req see
system.mem_ctrls3.rdQLenPdf::3                  19820                       # What read queue length does an incoming req see
system.mem_ctrls3.rdQLenPdf::4                  15293                       # What read queue length does an incoming req see
system.mem_ctrls3.rdQLenPdf::5                  12395                       # What read queue length does an incoming req see
system.mem_ctrls3.rdQLenPdf::6                   9934                       # What read queue length does an incoming req see
system.mem_ctrls3.rdQLenPdf::7                   8075                       # What read queue length does an incoming req see
system.mem_ctrls3.rdQLenPdf::8                   6633                       # What read queue length does an incoming req see
system.mem_ctrls3.rdQLenPdf::9                   5448                       # What read queue length does an incoming req see
system.mem_ctrls3.rdQLenPdf::10                  4508                       # What read queue length does an incoming req see
system.mem_ctrls3.rdQLenPdf::11                  3927                       # What read queue length does an incoming req see
system.mem_ctrls3.rdQLenPdf::12                  3229                       # What read queue length does an incoming req see
system.mem_ctrls3.rdQLenPdf::13                  2755                       # What read queue length does an incoming req see
system.mem_ctrls3.rdQLenPdf::14                  2420                       # What read queue length does an incoming req see
system.mem_ctrls3.rdQLenPdf::15                  2211                       # What read queue length does an incoming req see
system.mem_ctrls3.rdQLenPdf::16                  1857                       # What read queue length does an incoming req see
system.mem_ctrls3.rdQLenPdf::17                  1622                       # What read queue length does an incoming req see
system.mem_ctrls3.rdQLenPdf::18                  1498                       # What read queue length does an incoming req see
system.mem_ctrls3.rdQLenPdf::19                  1290                       # What read queue length does an incoming req see
system.mem_ctrls3.rdQLenPdf::20                  1187                       # What read queue length does an incoming req see
system.mem_ctrls3.rdQLenPdf::21                  1095                       # What read queue length does an incoming req see
system.mem_ctrls3.rdQLenPdf::22                  1004                       # What read queue length does an incoming req see
system.mem_ctrls3.rdQLenPdf::23                   946                       # What read queue length does an incoming req see
system.mem_ctrls3.rdQLenPdf::24                   900                       # What read queue length does an incoming req see
[...]
system.ruby.L2Cache_Controller.MT_MB.L1_PUTX::total           41                      
system.ruby.L2Cache_Controller.MT_MB.L1_PUTX_old |           0      0.00%      0.00% |           0      0.00%      0.00% |           0      0.00%      0.00% |           0      0.00%      0.00% |           0      0.00%      0.00% |           0      0.00%      0.00% |           0      0.00%      0.00% |           0      0.00%      0.00% |           0      0.00%      0.00% |           0      0.00%      0.00% |           0      0.00%      0.00% |           0      0.00%      0.00% |           0      0.00%      0.00% |           0      0.00%      0.00% |           0      0.00%      0.00% |           0      0.00%      0.00% |           0      0.00%      0.00% |           1    100.00%    100.00% |           0      0.00%    100.00% |           0      0.00%    100.00% |           0      0.00%    100.00% |           0      0.00%    100.00% |           0      0.00%    100.00% |           0      0.00%    100.00% |           0      0.00%    100.00% |           0      0.00%    100.00% |           0      0.00%    100.00% |           0      0.00%    100.00% |           0      0.00%    100.00% |           0      0.00%    100.00% |           0      0.00%    100.00% |           0      0.00%    100.00%
system.ruby.L2Cache_Controller.MT_MB.L1_PUTX_old::total            1                      
system.ruby.L2Cache_Controller.MT_MB.Exclusive_Unblock |      153336      5.66%      5.66% |       83553      3.09%      8.75% |       82066      3.03%     11.78% |       82880      3.06%     14.84% |       82130      3.03%     17.87% |       81989      3.03%     20.90% |       81859      3.02%     23.92% |       81456      3.01%     26.93% |       81638      3.01%     29.94% |       82827      3.06%     33.00% |       83825      3.10%     36.10% |       83061      3.07%     39.16% |       82510      3.05%     42.21% |       81577      3.01%     45.22% |       80747      2.98%     48.20% |       81076      2.99%     51.20% |       82285      3.04%     54.23% |       82001      3.03%     57.26% |       82411      3.04%     60.31% |       82505      3.05%     63.35% |       82244      3.04%     66.39% |       84555      3.12%     69.51% |       82393      3.04%     72.55% |       81655      3.02%     75.57% |       81974      3.03%     78.59% |       82504      3.05%     81.64% |       82023      3.03%     84.67% |       81583      3.01%     87.68% |       81980      3.03%     90.71% |       81690      3.02%     93.73% |       84311      3.11%     96.84% |       85618      3.16%    100.00%
system.ruby.L2Cache_Controller.MT_MB.Exclusive_Unblock::total      2708262                      
system.ruby.L2Cache_Controller.MT_IIB.L1_GETS |           2     12.50%     12.50% |           2     12.50%     25.00% |           0      0.00%     25.00% |           0      0.00%     25.00% |           0      0.00%     25.00% |           0      0.00%     25.00% |           1      6.25%     31.25% |           0      0.00%     31.25% |           0      0.00%     31.25% |           1      6.25%     37.50% |           1      6.25%     43.75% |           0      0.00%     43.75% |           0      0.00%     43.75% |           0      0.00%     43.75% |           0      0.00%     43.75% |           0      0.00%     43.75% |           0      0.00%     43.75% |           0      0.00%     43.75% |           1      6.25%     50.00% |           0      0.00%     50.00% |           1      6.25%     56.25% |           1      6.25%     62.50% |           1      6.25%     68.75% |           0      0.00%     68.75% |           1      6.25%     75.00% |           1      6.25%     81.25% |           1      6.25%     87.50% |           0      0.00%     87.50% |           0      0.00%     87.50% |           1      6.25%     93.75% |           1      6.25%    100.00% |           0      0.00%    100.00%
system.ruby.L2Cache_Controller.MT_IIB.L1_GETS::total           16                      
system.ruby.L2Cache_Controller.MT_IIB.L1_PUTX |           2      0.89%      0.89% |           3      1.33%      2.22% |           8      3.56%      5.78% |           8      3.56%      9.33% |           4      1.78%     11.11% |           5      2.22%     13.33% |           3      1.33%     14.67% |           7      3.11%     17.78% |           4      1.78%     19.56% |           2      0.89%     20.44% |          12      5.33%     25.78% |           7      3.11%     28.89% |          10      4.44%     33.33% |          12      5.33%     38.67% |          10      4.44%     43.11% |           9      4.00%     47.11% |           9      4.00%     51.11% |           4      1.78%     52.89% |          14      6.22%     59.11% |           5      2.22%     61.33% |           6      2.67%     64.00% |          10      4.44%     68.44% |           7      3.11%     71.56% |          10      4.44%     76.00% |          11      4.89%     80.89% |           6      2.67%     83.56% |           7      3.11%     86.67% |          10      4.44%     91.11% |           7      3.11%     94.22% |           5      2.22%     96.44% |           2      0.89%     97.33% |           6      2.67%    100.00%
system.ruby.L2Cache_Controller.MT_IIB.L1_PUTX::total          225                      
system.ruby.L2Cache_Controller.MT_IIB.WB_Data |           0      0.00%      0.00% |           0      0.00%      0.00% |           0      0.00%      0.00% |           0      0.00%      0.00% |           0      0.00%      0.00% |           0      0.00%      0.00% |           0      0.00%      0.00% |           0      0.00%      0.00% |           0      0.00%      0.00% |           0      0.00%      0.00% |           0      0.00%      0.00% |           0      0.00%      0.00% |           0      0.00%      0.00% |           0      0.00%      0.00% |           0      0.00%      0.00% |           0      0.00%      0.00% |           0      0.00%      0.00% |           0      0.00%      0.00% |           0      0.00%      0.00% |           0      0.00%      0.00% |           0      0.00%      0.00% |           0      0.00%      0.00% |           0      0.00%      0.00% |           0      0.00%      0.00% |           0      0.00%      0.00% |           2    100.00%    100.00% |           0      0.00%    100.00% |           0      0.00%    100.00% |           0      0.00%    100.00% |           0      0.00%    100.00% |           0      0.00%    100.00% |           0      0.00%    100.00%
system.ruby.L2Cache_Controller.MT_IIB.WB_Data::total            2                      
system.ruby.L2Cache_Controller.MT_IIB.WB_Data_clean |        1821      3.08%      3.08% |        1830      3.10%      6.18% |        1825      3.09%      9.28% |        1819      3.08%     12.36% |        1788      3.03%     15.38% |        1788      3.03%     18.41% |        1822      3.09%     21.50% |        1847      3.13%     24.63% |        1817      3.08%     27.71% |        1843      3.12%     30.83% |        1887      3.20%     34.02% |        1869      3.17%     37.19% |        1898      3.21%     40.40% |        1879      3.18%     43.59% |        1901      3.22%     46.81% |        1887      3.20%     50.00% |        1875      3.18%     53.18% |        1823      3.09%     56.27% |        1911      3.24%     59.50% |        1888      3.20%     62.70% |        1874      3.17%     65.88% |        1843      3.12%     69.00% |        1877      3.18%     72.18% |        1845      3.13%     75.30% |        1858      3.15%     78.45% |        1842      3.12%     81.57% |        1840      3.12%     84.68% |        1827      3.09%     87.78% |        1803      3.05%     90.83% |        1756      2.97%     93.81% |        1819      3.08%     96.89% |        1837      3.11%    100.00%
system.ruby.L2Cache_Controller.MT_IIB.WB_Data_clean::total        59039                      
system.ruby.L2Cache_Controller.MT_IIB.Unblock |          30      1.56%      1.56% |          29      1.50%      3.06% |          46      2.39%      5.45% |          43      2.23%      7.68% |          55      2.85%     10.53% |          73      3.79%     14.32% |          58      3.01%     17.32% |          60      3.11%     20.44% |         107      5.55%     25.99% |          73      3.79%     29.77% |          69      3.58%     33.35% |          51      2.65%     36.00% |          59      3.06%     39.06% |          66      3.42%     42.48% |          66      3.42%     45.90% |          34      1.76%     47.67% |          82      4.25%     51.92% |         112      5.81%     57.73% |          68      3.53%     61.26% |          59      3.06%     64.32% |          97      5.03%     69.35% |          74      3.84%     73.18% |          49      2.54%     75.73% |          49      2.54%     78.27% |          52      2.70%     80.96% |          36      1.87%     82.83% |          51      2.65%     85.48% |          50      2.59%     88.07% |          49      2.54%     90.61% |          83      4.30%     94.92% |          41      2.13%     97.04% |          57      2.96%    100.00%
system.ruby.L2Cache_Controller.MT_IIB.Unblock::total         1928                      
system.ruby.L2Cache_Controller.MT_IB.WB_Data_clean |          30      1.56%      1.56% |          29      1.50%      3.06% |          46      2.39%      5.45% |          43      2.23%      7.68% |          55      2.85%     10.53% |          73      3.79%     14.32% |          58      3.01%     17.32% |          60      3.11%     20.44% |         107      5.55%     25.99% |          73      3.79%     29.77% |          69      3.58%     33.35% |          51      2.65%     36.00% |          59      3.06%     39.06% |          66      3.42%     42.48% |          66      3.42%     45.90% |          34      1.76%     47.67% |          82      4.25%     51.92% |         112      5.81%     57.73% |          68      3.53%     61.26% |          59      3.06%     64.32% |          97      5.03%     69.35% |          74      3.84%     73.18% |          49      2.54%     75.73% |          49      2.54%     78.27% |          52      2.70%     80.96% |          36      1.87%     82.83% |          51      2.65%     85.48% |          50      2.59%     88.07% |          49      2.54%     90.61% |          83      4.30%     94.92% |          41      2.13%     97.04% |          57      2.96%    100.00%
system.ruby.L2Cache_Controller.MT_IB.WB_Data_clean::total         1928                      
system.ruby.L2Cache_Controller.MT_SB.L1_GETS |           0      0.00%      0.00% |           0      0.00%      0.00% |           0      0.00%      0.00% |           0      0.00%      0.00% |           0      0.00%      0.00% |           0      0.00%      0.00% |           0      0.00%      0.00% |           0      0.00%      0.00% |           0      0.00%      0.00% |           1     12.50%     12.50% |           0      0.00%     12.50% |           0      0.00%     12.50% |           0      0.00%     12.50% |           0      0.00%     12.50% |           0      0.00%     12.50% |           0      0.00%     12.50% |           0      0.00%     12.50% |           1     12.50%     25.00% |           0      0.00%     25.00% |           0      0.00%     25.00% |           0      0.00%     25.00% |           0      0.00%     25.00% |           0      0.00%     25.00% |           1     12.50%     37.50% |           0      0.00%     37.50% |           0      0.00%     37.50% |           1     12.50%     50.00% |           1     12.50%     62.50% |           1     12.50%     75.00% |           0      0.00%     75.00% |           2     25.00%    100.00% |           0      0.00%    100.00%
system.ruby.L2Cache_Controller.MT_SB.L1_GETS::total            8                      
system.ruby.L2Cache_Controller.MT_SB.L1_PUTX |           0      0.00%      0.00% |           0      0.00%      0.00% |           1      4.55%      4.55% |           1      4.55%      9.09% |           0      0.00%      9.09% |           0      0.00%      9.09% |           0      0.00%      9.09% |           1      4.55%     13.64% |           0      0.00%     13.64% |           0      0.00%     13.64% |           2      9.09%     22.73% |           1      4.55%     27.27% |           2      9.09%     36.36% |           1      4.55%     40.91% |           0      0.00%     40.91% |           0      0.00%     40.91% |           1      4.55%     45.45% |           0      0.00%     45.45% |           2      9.09%     54.55% |           1      4.55%     59.09% |           1      4.55%     63.64% |           0      0.00%     63.64% |           1      4.55%     68.18% |           0      0.00%     68.18% |           1      4.55%     72.73% |           3     13.64%     86.36% |           1      4.55%     90.91% |           1      4.55%     95.45% |           0      0.00%     95.45% |           1      4.55%    100.00% |           0      0.00%    100.00% |           0      0.00%    100.00%
system.ruby.L2Cache_Controller.MT_SB.L1_PUTX::total           22                      
system.ruby.L2Cache_Controller.MT_SB.Unblock |        1821      3.08%      3.08% |        1830      3.10%      6.18% |        1825      3.09%      9.27% |        1819      3.08%     12.36% |        1788      3.03%     15.38% |        1788      3.03%     18.41% |        1822      3.09%     21.50% |        1847      3.13%     24.63% |        1817      3.08%     27.70% |        1843      3.12%     30.83% |        1887      3.20%     34.02% |        1869      3.17%     37.19% |        1898      3.21%     40.40% |        1879      3.18%     43.58% |        1901      3.22%     46.80% |        1887      3.20%     50.00% |        1875      3.18%     53.18% |        1823      3.09%     56.26% |        1911      3.24%     59.50% |        1888      3.20%     62.70% |        1874      3.17%     65.87% |        1843      3.12%     68.99% |        1877      3.18%     72.17% |        1845      3.12%     75.30% |        1858      3.15%     78.45% |        1844      3.12%     81.57% |        1840      3.12%     84.69% |        1827      3.09%     87.78% |        1803      3.05%     90.83% |        1756      2.97%     93.81% |        1819      3.08%     96.89% |        1837      3.11%    100.00%
system.ruby.L2Cache_Controller.MT_SB.Unblock::total        59041                      
system.ruby.SimicsNetworkPortInterface_Controller.MessageSend |      669727     23.91%     23.91% |     1400539     50.00%     73.91% |       84533      3.02%     76.93% |       95021      3.39%     80.32% |       91470      3.27%     83.59% |       82367      2.94%     86.53% |       92739      3.31%     89.84% |       99819      3.56%     93.40% |       90143      3.22%     96.62% |       94720      3.38%    100.00% |           0      0.00%    100.00% |           0      0.00%    100.00% |           0      0.00%    100.00% |           0      0.00%    100.00% |           0      0.00%    100.00% |           0      0.00%    100.00% |           0      0.00%    100.00% |           0      0.00%    100.00% |           0      0.00%    100.00% |           0      0.00%    100.00% |           0      0.00%    100.00% |           0      0.00%    100.00% |           0      0.00%    100.00% |           0      0.00%    100.00% |           0      0.00%    100.00% |           0      0.00%    100.00% |           0      0.00%    100.00% |           0      0.00%    100.00% |           0      0.00%    100.00% |           0      0.00%    100.00% |           0      0.00%    100.00% |           0      0.00%    100.00%
system.ruby.SimicsNetworkPortInterface_Controller.MessageSend::total      2801078                      
system.ruby.SimicsNetworkPortInterface_Controller.MessageRecv |      669727     23.91%     23.91% |     1400539     50.00%     73.91% |       84533      3.02%     76.93% |       95021      3.39%     80.32% |       91470      3.27%     83.59% |       82367      2.94%     86.53% |       92739      3.31%     89.84% |       99819      3.56%     93.40% |       90143      3.22%     96.62% |       94720      3.38%    100.00% |           0      0.00%    100.00% |           0      0.00%    100.00% |           0      0.00%    100.00% |           0      0.00%    100.00% |           0      0.00%    100.00% |           0      0.00%    100.00% |           0      0.00%    100.00% |           0      0.00%    100.00% |           0      0.00%    100.00% |           0      0.00%    100.00% |           0      0.00%    100.00% |           0      0.00%    100.00% |           0      0.00%    100.00% |           0      0.00%    100.00% |           0      0.00%    100.00% |           0      0.00%    100.00% |           0      0.00%    100.00% |           0      0.00%    100.00% |           0      0.00%    100.00% |           0      0.00%    100.00% |           0      0.00%    100.00% |           0      0.00%    100.00%
system.ruby.SimicsNetworkPortInterface_Controller.MessageRecv::total      2801078                      
system.ruby.SimicsNetworkPortInterface_Controller.A.MessageSend |      669727     23.91%     23.91% |     1400539     50.00%     73.91% |       84533      3.02%     76.93% |       95021      3.39%     80.32% |       91470      3.27%     83.59% |       82367      2.94%     86.53% |       92739      3.31%     89.84% |       99819      3.56%     93.40% |       90143      3.22%     96.62% |       94720      3.38%    100.00% |           0      0.00%    100.00% |           0      0.00%    100.00% |           0      0.00%    100.00% |           0      0.00%    100.00% |           0      0.00%    100.00% |           0      0.00%    100.00% |           0      0.00%    100.00% |           0      0.00%    100.00% |           0      0.00%    100.00% |           0      0.00%    100.00% |           0      0.00%    100.00% |           0      0.00%    100.00% |           0      0.00%    100.00% |           0      0.00%    100.00% |           0      0.00%    100.00% |           0      0.00%    100.00% |           0      0.00%    100.00% |           0      0.00%    100.00% |           0      0.00%    100.00% |           0      0.00%    100.00% |           0      0.00%    100.00% |           0      0.00%    100.00%
system.ruby.SimicsNetworkPortInterface_Controller.A.MessageSend::total      2801078                      
system.ruby.SimicsNetworkPortInterface_Controller.A.MessageRecv |      669727     23.91%     23.91% |     1400539     50.00%     73.91% |       84533      3.02%     76.93% |       95021      3.39%     80.32% |       91470      3.27%     83.59% |       82367      2.94%     86.53% |       92739      3.31%     89.84% |       99819      3.56%     93.40% |       90143      3.22%     96.62% |       94720      3.38%    100.00% |           0      0.00%    100.00% |           0      0.00%    100.00% |           0      0.00%    100.00% |           0      0.00%    100.00% |           0      0.00%    100.00% |           0      0.00%    100.00% |           0      0.00%    100.00% |           0      0.00%    100.00% |           0      0.00%    100.00% |           0      0.00%    100.00% |           0      0.00%    100.00% |           0      0.00%    100.00% |           0      0.00%    100.00% |           0      0.00%    100.00% |           0      0.00%    100.00% |           0      0.00%    100.00% |           0      0.00%    100.00% |           0      0.00%    100.00% |           0      0.00%    100.00% |           0      0.00%    100.00% |           0      0.00%    100.00% |           0      0.00%    100.00%
system.ruby.SimicsNetworkPortInterface_Controller.A.MessageRecv::total      2801078                      
system.switch_cpus.kern.inst.arm                    0                       # number of arm instructions executed
system.switch_cpus.kern.inst.quiesce                0                       # number of quiesce instructions executed

---------- End Simulation Statistics   ----------
