
---------- Begin Simulation Statistics ----------
sim_seconds                                  0.154071                       # Number of seconds simulated
sim_ticks                                154071219000                       # Number of ticks simulated
final_tick                               5330239297500                       # Number of ticks from beginning of simulation (restored from checkpoints and never reset)
sim_freq                                 1000000000000                       # Frequency of simulated ticks
host_inst_rate                                  82757                       # Simulator instruction rate (inst/s)
host_op_rate                                   157423                       # Simulator op (including micro ops) rate (op/s)
host_tick_rate                              196443392                       # Simulator tick rate (ticks/s)
host_mem_usage                                4524508                       # Number of bytes of host memory used
host_seconds                                   784.30                       # Real time elapsed on the host
sim_insts                                    64906744                       # Number of instructions simulated
sim_ops                                     123467091                       # Number of ops (including micro ops) simulated
system.voltage_domain.voltage                       1                       # Voltage in Volts
system.clk_domain.clock                           500                       # Clock period in ticks
system.mem_ctrls0.bytes_read::ruby.dir_cntrl0     25271424                       # Number of bytes read from this memory
system.mem_ctrls0.bytes_read::total          25271424                       # Number of bytes read from this memory
system.mem_ctrls0.bytes_written::ruby.dir_cntrl0     21425600                       # Number of bytes written to this memory
system.mem_ctrls0.bytes_written::total       21425600                       # Number of bytes written to this memory
system.mem_ctrls0.num_reads::ruby.dir_cntrl0       394866                       # Number of read requests responded to by this memory
system.mem_ctrls0.num_reads::total             394866                       # Number of read requests responded to by this memory
system.mem_ctrls0.num_writes::ruby.dir_cntrl0       334775                       # Number of write requests responded to by this memory
system.mem_ctrls0.num_writes::total            334775                       # Number of write requests responded to by this memory
system.mem_ctrls0.bw_read::ruby.dir_cntrl0    164024301                       # Total read bandwidth from this memory (bytes/s)
system.mem_ctrls0.bw_read::total            164024301                       # Total read bandwidth from this memory (bytes/s)
system.mem_ctrls0.bw_write::ruby.dir_cntrl0    139062962                       # Write bandwidth from this memory (bytes/s)
system.mem_ctrls0.bw_write::total           139062962                       # Write bandwidth from this memory (bytes/s)
system.mem_ctrls0.bw_total::ruby.dir_cntrl0    303087263                       # Total bandwidth to/from this memory (bytes/s)
system.mem_ctrls0.bw_total::total           303087263                       # Total bandwidth to/from this memory (bytes/s)
system.mem_ctrls0.readReqs                     394868                       # Number of read requests accepted
system.mem_ctrls0.writeReqs                    334775                       # Number of write requests accepted
system.mem_ctrls0.readBursts                   394868                       # Number of DRAM read bursts, including those serviced by the write queue
system.mem_ctrls0.writeBursts                  334775                       # Number of DRAM write bursts, including those merged in the write queue
system.mem_ctrls0.bytesReadDRAM              25270336                       # Total number of bytes read from DRAM
system.mem_ctrls0.bytesReadWrQ                   1216                       # Total number of bytes read from write queue
system.mem_ctrls0.bytesWritten               21425408                       # Total number of bytes written to DRAM
system.mem_ctrls0.bytesReadSys               25271552                       # Total read bytes from the system interface side
system.mem_ctrls0.bytesWrittenSys            21425600                       # Total written bytes from the system interface side
system.mem_ctrls0.servicedByWrQ                    19                       # Number of DRAM read bursts serviced by the write queue
system.mem_ctrls0.mergedWrBursts                    0                       # Number of DRAM write bursts merged with an existing one
system.mem_ctrls0.neitherReadNorWriteReqs            0                       # Number of requests that are neither read nor write
system.mem_ctrls0.perBankRdBursts::0            24366                       # Per bank write bursts
system.mem_ctrls0.perBankRdBursts::1            25087                       # Per bank write bursts
system.mem_ctrls0.perBankRdBursts::2            24644                       # Per bank write bursts
system.mem_ctrls0.perBankRdBursts::3            24950                       # Per bank write bursts
system.mem_ctrls0.perBankRdBursts::4            24587                       # Per bank write bursts
system.mem_ctrls0.perBankRdBursts::5            24933                       # Per bank write bursts
system.mem_ctrls0.perBankRdBursts::6            24977                       # Per bank write bursts
system.mem_ctrls0.perBankRdBursts::7            24753                       # Per bank write bursts
system.mem_ctrls0.perBankRdBursts::8            24657                       # Per bank write bursts
system.mem_ctrls0.perBankRdBursts::9            24789                       # Per bank write bursts
system.mem_ctrls0.perBankRdBursts::10           24578                       # Per bank write bursts
system.mem_ctrls0.perBankRdBursts::11           25072                       # Per bank write bursts
system.mem_ctrls0.perBankRdBursts::12           24325                       # Per bank write bursts
system.mem_ctrls0.perBankRdBursts::13           24249                       # Per bank write bursts
system.mem_ctrls0.perBankRdBursts::14           24410                       # Per bank write bursts
system.mem_ctrls0.perBankRdBursts::15           24472                       # Per bank write bursts
system.mem_ctrls0.perBankWrBursts::0            20951                       # Per bank write bursts
system.mem_ctrls0.perBankWrBursts::1            20821                       # Per bank write bursts
system.mem_ctrls0.perBankWrBursts::2            20834                       # Per bank write bursts
system.mem_ctrls0.perBankWrBursts::3            21121                       # Per bank write bursts
system.mem_ctrls0.perBankWrBursts::4            20766                       # Per bank write bursts
system.mem_ctrls0.perBankWrBursts::5            21080                       # Per bank write bursts
system.mem_ctrls0.perBankWrBursts::6            21078                       # Per bank write bursts
system.mem_ctrls0.perBankWrBursts::7            21047                       # Per bank write bursts
system.mem_ctrls0.perBankWrBursts::8            21110                       # Per bank write bursts
system.mem_ctrls0.perBankWrBursts::9            20946                       # Per bank write bursts
system.mem_ctrls0.perBankWrBursts::10           20868                       # Per bank write bursts
system.mem_ctrls0.perBankWrBursts::11           20887                       # Per bank write bursts
system.mem_ctrls0.perBankWrBursts::12           20636                       # Per bank write bursts
system.mem_ctrls0.perBankWrBursts::13           20895                       # Per bank write bursts
system.mem_ctrls0.perBankWrBursts::14           20937                       # Per bank write bursts
system.mem_ctrls0.perBankWrBursts::15           20795                       # Per bank write bursts
system.mem_ctrls0.numRdRetry                    70371                       # Number of times read queue was full causing retry
system.mem_ctrls0.numWrRetry                    12566                       # Number of times write queue was full causing retry
system.mem_ctrls0.totGap                 154070966000                       # Total gap between requests
system.mem_ctrls0.readPktSize::0                    0                       # Read request sizes (log2)
system.mem_ctrls0.readPktSize::1                    0                       # Read request sizes (log2)
system.mem_ctrls0.readPktSize::2                    0                       # Read request sizes (log2)
system.mem_ctrls0.readPktSize::3                    0                       # Read request sizes (log2)
system.mem_ctrls0.readPktSize::4                    0                       # Read request sizes (log2)
system.mem_ctrls0.readPktSize::5                    0                       # Read request sizes (log2)
system.mem_ctrls0.readPktSize::6               394868                       # Read request sizes (log2)
system.mem_ctrls0.writePktSize::0                   0                       # Write request sizes (log2)
system.mem_ctrls0.writePktSize::1                   0                       # Write request sizes (log2)
system.mem_ctrls0.writePktSize::2                   0                       # Write request sizes (log2)
system.mem_ctrls0.writePktSize::3                   0                       # Write request sizes (log2)
system.mem_ctrls0.writePktSize::4                   0                       # Write request sizes (log2)
system.mem_ctrls0.writePktSize::5                   0                       # Write request sizes (log2)
system.mem_ctrls0.writePktSize::6              334775                       # Write request sizes (log2)
system.mem_ctrls0.rdQLenPdf::0                 206739                       # What read queue length does an incoming req see
system.mem_ctrls0.rdQLenPdf::1                   9096                       # What read queue length does an incoming req see
system.mem_ctrls0.rdQLenPdf::2                   6940                       # What read queue length does an incoming req see
system.mem_ctrls0.rdQLenPdf::3                   4968                       # What read queue length does an incoming req see
system.mem_ctrls0.rdQLenPdf::4                   5431                       # What read queue length does an incoming req see
system.mem_ctrls0.rdQLenPdf::5                   5511                       # What read queue length does an incoming req see
system.mem_ctrls0.rdQLenPdf::6                   5317                       # What read queue length does an incoming req see
system.mem_ctrls0.rdQLenPdf::7                   4954                       # What read queue length does an incoming req see
system.mem_ctrls0.rdQLenPdf::8                   4651                       # What read queue length does an incoming req see
system.mem_ctrls0.rdQLenPdf::9                   4251                       # What read queue length does an incoming req see
system.mem_ctrls0.rdQLenPdf::10                  4008                       # What read queue length does an incoming req see
system.mem_ctrls0.rdQLenPdf::11                  3917                       # What read queue length does an incoming req see
system.mem_ctrls0.rdQLenPdf::12                  3742                       # What read queue length does an incoming req see
system.mem_ctrls0.rdQLenPdf::13                  3628                       # What read queue length does an incoming req see
system.mem_ctrls0.rdQLenPdf::14                  3490                       # What read queue length does an incoming req see
system.mem_ctrls0.rdQLenPdf::15                  3301                       # What read queue length does an incoming req see
system.mem_ctrls0.rdQLenPdf::16                  3124                       # What read queue length does an incoming req see
system.mem_ctrls0.rdQLenPdf::17                  3008                       # What read queue length does an incoming req see
system.mem_ctrls0.rdQLenPdf::18                  2989                       # What read queue length does an incoming req see
system.mem_ctrls0.rdQLenPdf::19                  2822                       # What read queue length does an incoming req see
system.mem_ctrls0.rdQLenPdf::20                  2691                       # What read queue length does an incoming req see
system.mem_ctrls0.rdQLenPdf::21                  2683                       # What read queue length does an incoming req see
system.mem_ctrls0.rdQLenPdf::22                  2503                       # What read queue length does an incoming req see
system.mem_ctrls0.rdQLenPdf::23                  2357                       # What read queue length does an incoming req see
system.mem_ctrls0.rdQLenPdf::24                  2396                       # What read queue length does an incoming req see
system.mem_ctrls0.rdQLenPdf::25                  2446                       # What read queue length does an incoming req see
system.mem_ctrls0.rdQLenPdf::26                  2413                       # What read queue length does an incoming req see
system.mem_ctrls0.rdQLenPdf::27                  2481                       # What read queue length does an incoming req see
system.mem_ctrls0.rdQLenPdf::28                  2607                       # What read queue length does an incoming req see
system.mem_ctrls0.rdQLenPdf::29                  2671                       # What read queue length does an incoming req see
system.mem_ctrls0.rdQLenPdf::30                  2994                       # What read queue length does an incoming req see
system.mem_ctrls0.rdQLenPdf::31                 74720                       # What read queue length does an incoming req see
system.mem_ctrls0.wrQLenPdf::0                  49908                       # What write queue length does an incoming req see
system.mem_ctrls0.wrQLenPdf::1                  54518                       # What write queue length does an incoming req see
system.mem_ctrls0.wrQLenPdf::2                  56686                       # What write queue length does an incoming req see
system.mem_ctrls0.wrQLenPdf::3                  56704                       # What write queue length does an incoming req see
system.mem_ctrls0.wrQLenPdf::4                  56921                       # What write queue length does an incoming req see
system.mem_ctrls0.wrQLenPdf::5                  15317                       # What write queue length does an incoming req see
system.mem_ctrls0.wrQLenPdf::6                  17506                       # What write queue length does an incoming req see
system.mem_ctrls0.wrQLenPdf::7                  27215                       # What write queue length does an incoming req see
system.mem_ctrls0.bytesPerActivate::samples       217861                       # Bytes accessed per row activation
system.mem_ctrls0.bytesPerActivate::mean   214.332919                       # Bytes accessed per row activation
system.mem_ctrls0.bytesPerActivate::gmean   162.776925                       # Bytes accessed per row activation
system.mem_ctrls0.bytesPerActivate::stdev   166.951876                       # Bytes accessed per row activation
system.mem_ctrls0.bytesPerActivate::0-127        69320     31.82%     31.82% # Bytes accessed per row activation
system.mem_ctrls0.bytesPerActivate::128-255        57560     26.42%     58.24% # Bytes accessed per row activation
system.mem_ctrls0.bytesPerActivate::256-383        68903     31.63%     89.87% # Bytes accessed per row activation
system.mem_ctrls0.bytesPerActivate::384-511         9462      4.34%     94.21% # Bytes accessed per row activation
system.mem_ctrls0.bytesPerActivate::512-639         5638      2.59%     96.80% # Bytes accessed per row activation
system.mem_ctrls0.bytesPerActivate::640-767         2736      1.26%     98.05% # Bytes accessed per row activation
system.mem_ctrls0.bytesPerActivate::768-895         1481      0.68%     98.73% # Bytes accessed per row activation
system.mem_ctrls0.bytesPerActivate::896-1023         1060      0.49%     99.22% # Bytes accessed per row activation
system.mem_ctrls0.bytesPerActivate::1024-1151         1701      0.78%    100.00% # Bytes accessed per row activation
system.mem_ctrls0.bytesPerActivate::total       217861                       # Bytes accessed per row activation
system.mem_ctrls0.rdPerTurnAround::samples        51579                       # Reads before turning the bus around for writes
system.mem_ctrls0.rdPerTurnAround::mean      7.654956                       # Reads before turning the bus around for writes
system.mem_ctrls0.rdPerTurnAround::stdev    18.643322                       # Reads before turning the bus around for writes
system.mem_ctrls0.rdPerTurnAround::0-127        51571     99.98%     99.98% # Reads before turning the bus around for writes
system.mem_ctrls0.rdPerTurnAround::128-255            7      0.01%    100.00% # Reads before turning the bus around for writes
system.mem_ctrls0.rdPerTurnAround::3968-4095            1      0.00%    100.00% # Reads before turning the bus around for writes
system.mem_ctrls0.rdPerTurnAround::total        51579                       # Reads before turning the bus around for writes
system.mem_ctrls0.wrPerTurnAround::samples        51579                       # Writes before turning the bus around for reads
system.mem_ctrls0.wrPerTurnAround::mean      6.490471                       # Writes before turning the bus around for reads
system.mem_ctrls0.wrPerTurnAround::gmean     5.975447                       # Writes before turning the bus around for reads
system.mem_ctrls0.wrPerTurnAround::stdev     3.232448                       # Writes before turning the bus around for reads
system.mem_ctrls0.wrPerTurnAround::4-7          42159     81.74%     81.74% # Writes before turning the bus around for reads
system.mem_ctrls0.wrPerTurnAround::8-11          3216      6.24%     87.97% # Writes before turning the bus around for reads
system.mem_ctrls0.wrPerTurnAround::12-15         3644      7.06%     95.04% # Writes before turning the bus around for reads
system.mem_ctrls0.wrPerTurnAround::16-19         2560      4.96%    100.00% # Writes before turning the bus around for reads
system.mem_ctrls0.wrPerTurnAround::total        51579                       # Writes before turning the bus around for reads
system.mem_ctrls0.totQLat                 50274433857                       # Total ticks spent queuing
system.mem_ctrls0.totMemAccLat            57677852607                       # Total ticks spent from burst creation until serviced by the DRAM
system.mem_ctrls0.totBusLat                1974245000                       # Total ticks spent in databus transfers
system.mem_ctrls0.avgQLat                   127325.72                       # Average queueing delay per DRAM burst
system.mem_ctrls0.avgBusLat                   5000.00                       # Average bus latency per DRAM burst
system.mem_ctrls0.avgMemAccLat              146075.72                       # Average memory access latency per DRAM burst
system.mem_ctrls0.avgRdBW                      164.02                       # Average DRAM read bandwidth in MiByte/s
system.mem_ctrls0.avgWrBW                      139.06                       # Average achieved write bandwidth in MiByte/s
system.mem_ctrls0.avgRdBWSys                   164.03                       # Average system read bandwidth in MiByte/s
system.mem_ctrls0.avgWrBWSys                   139.06                       # Average system write bandwidth in MiByte/s
system.mem_ctrls0.peakBW                     12800.00                       # Theoretical peak bandwidth in MiByte/s
system.mem_ctrls0.busUtil                        2.37                       # Data bus utilization in percentage
system.mem_ctrls0.busUtilRead                    1.28                       # Data bus utilization in percentage for reads
system.mem_ctrls0.busUtilWrite                   1.09                       # Data bus utilization in percentage for writes
system.mem_ctrls0.avgRdQLen                      1.34                       # Average read queue length when enqueuing
system.mem_ctrls0.avgWrQLen                      2.98                       # Average write queue length when enqueuing
system.mem_ctrls0.readRowHits                  291731                       # Number of row buffer hits during reads
system.mem_ctrls0.writeRowHits                 220020                       # Number of row buffer hits during writes
system.mem_ctrls0.readRowHitRate                73.88                       # Row buffer hit rate for reads
system.mem_ctrls0.writeRowHitRate               65.72                       # Row buffer hit rate for writes
system.mem_ctrls0.avgGap                    211159.38                       # Average gap between requests
system.mem_ctrls0.pageHitRate                   70.14                       # Row buffer hit rate, read and write combined
system.mem_ctrls0.memoryStateTime::IDLE   26565825750                       # Time in different power states
system.mem_ctrls0.memoryStateTime::REF     5144620000                       # Time in different power states
system.mem_ctrls0.memoryStateTime::PRE_PDN            0                       # Time in different power states
system.mem_ctrls0.memoryStateTime::ACT   122356356750                       # Time in different power states
system.mem_ctrls0.memoryStateTime::ACT_PDN            0                       # Time in different power states
system.mem_ctrls0.actEnergy::0              829679760                       # Energy for activate commands per rank (pJ)
system.mem_ctrls0.actEnergy::1              817288920                       # Energy for activate commands per rank (pJ)
system.mem_ctrls0.preEnergy::0              452702250                       # Energy for precharge commands per rank (pJ)
system.mem_ctrls0.preEnergy::1              445941375                       # Energy for precharge commands per rank (pJ)
system.mem_ctrls0.readEnergy::0            1546584000                       # Energy for read commands per rank (pJ)
system.mem_ctrls0.readEnergy::1            1533027600                       # Energy for read commands per rank (pJ)
system.mem_ctrls0.writeEnergy::0           1086631200                       # Energy for write commands per rank (pJ)
system.mem_ctrls0.writeEnergy::1           1082594160                       # Energy for write commands per rank (pJ)
system.mem_ctrls0.refreshEnergy::0        10062876720                       # Energy for refresh commands per rank (pJ)
system.mem_ctrls0.refreshEnergy::1        10062876720                       # Energy for refresh commands per rank (pJ)
system.mem_ctrls0.actBackEnergy::0        61287300315                       # Energy for active background per rank (pJ)
system.mem_ctrls0.actBackEnergy::1        61031362905                       # Energy for active background per rank (pJ)
system.mem_ctrls0.preBackEnergy::0        38679283500                       # Energy for precharge background per rank (pJ)
system.mem_ctrls0.preBackEnergy::1        38903790000                       # Energy for precharge background per rank (pJ)
system.mem_ctrls0.totalEnergy::0         113945057745                       # Total energy per rank (pJ)
system.mem_ctrls0.totalEnergy::1         113876881680                       # Total energy per rank (pJ)
system.mem_ctrls0.averagePower::0          739.582221                       # Core power per rank (mW)
system.mem_ctrls0.averagePower::1          739.139711                       # Core power per rank (mW)
system.mem_ctrls1.bytes_read::ruby.dir_cntrl1     24511424                       # Number of bytes read from this memory
system.mem_ctrls1.bytes_read::total          24511424                       # Number of bytes read from this memory
system.mem_ctrls1.bytes_written::ruby.dir_cntrl1     20688256                       # Number of bytes written to this memory
system.mem_ctrls1.bytes_written::total       20688256                       # Number of bytes written to this memory
system.mem_ctrls1.num_reads::ruby.dir_cntrl1       382991                       # Number of read requests responded to by this memory
system.mem_ctrls1.num_reads::total             382991                       # Number of read requests responded to by this memory
system.mem_ctrls1.num_writes::ruby.dir_cntrl1       323254                       # Number of write requests responded to by this memory
system.mem_ctrls1.num_writes::total            323254                       # Number of write requests responded to by this memory
system.mem_ctrls1.bw_read::ruby.dir_cntrl1    159091517                       # Total read bandwidth from this memory (bytes/s)
system.mem_ctrls1.bw_read::total            159091517                       # Total read bandwidth from this memory (bytes/s)
system.mem_ctrls1.bw_write::ruby.dir_cntrl1    134277227                       # Write bandwidth from this memory (bytes/s)
system.mem_ctrls1.bw_write::total           134277227                       # Write bandwidth from this memory (bytes/s)
system.mem_ctrls1.bw_total::ruby.dir_cntrl1    293368744                       # Total bandwidth to/from this memory (bytes/s)
system.mem_ctrls1.bw_total::total           293368744                       # Total bandwidth to/from this memory (bytes/s)
system.mem_ctrls1.readReqs                     382991                       # Number of read requests accepted
system.mem_ctrls1.writeReqs                    323254                       # Number of write requests accepted
system.mem_ctrls1.readBursts                   382991                       # Number of DRAM read bursts, including those serviced by the write queue
system.mem_ctrls1.writeBursts                  323254                       # Number of DRAM write bursts, including those merged in the write queue
system.mem_ctrls1.bytesReadDRAM              24510144                       # Total number of bytes read from DRAM
system.mem_ctrls1.bytesReadWrQ                   1280                       # Total number of bytes read from write queue
system.mem_ctrls1.bytesWritten               20688192                       # Total number of bytes written to DRAM
system.mem_ctrls1.bytesReadSys               24511424                       # Total read bytes from the system interface side
system.mem_ctrls1.bytesWrittenSys            20688256                       # Total written bytes from the system interface side
system.mem_ctrls1.servicedByWrQ                    20                       # Number of DRAM read bursts serviced by the write queue
system.mem_ctrls1.mergedWrBursts                    0                       # Number of DRAM write bursts merged with an existing one
system.mem_ctrls1.neitherReadNorWriteReqs            0                       # Number of requests that are neither read nor write
system.mem_ctrls1.perBankRdBursts::0            23652                       # Per bank write bursts
system.mem_ctrls1.perBankRdBursts::1            24332                       # Per bank write bursts
system.mem_ctrls1.perBankRdBursts::2            23898                       # Per bank write bursts
system.mem_ctrls1.perBankRdBursts::3            24204                       # Per bank write bursts
system.mem_ctrls1.perBankRdBursts::4            23873                       # Per bank write bursts
system.mem_ctrls1.perBankRdBursts::5            24186                       # Per bank write bursts
system.mem_ctrls1.perBankRdBursts::6            24233                       # Per bank write bursts
system.mem_ctrls1.perBankRdBursts::7            24044                       # Per bank write bursts
system.mem_ctrls1.perBankRdBursts::8            23920                       # Per bank write bursts
system.mem_ctrls1.perBankRdBursts::9            24040                       # Per bank write bursts
system.mem_ctrls1.perBankRdBursts::10           23809                       # Per bank write bursts
system.mem_ctrls1.perBankRdBursts::11           24343                       # Per bank write bursts
system.mem_ctrls1.perBankRdBursts::12           23594                       # Per bank write bursts
system.mem_ctrls1.perBankRdBursts::13           23494                       # Per bank write bursts
system.mem_ctrls1.perBankRdBursts::14           23598                       # Per bank write bursts
system.mem_ctrls1.perBankRdBursts::15           23751                       # Per bank write bursts
system.mem_ctrls1.perBankWrBursts::0            20229                       # Per bank write bursts
system.mem_ctrls1.perBankWrBursts::1            20112                       # Per bank write bursts
system.mem_ctrls1.perBankWrBursts::2            20128                       # Per bank write bursts
system.mem_ctrls1.perBankWrBursts::3            20414                       # Per bank write bursts
system.mem_ctrls1.perBankWrBursts::4            20057                       # Per bank write bursts
system.mem_ctrls1.perBankWrBursts::5            20371                       # Per bank write bursts
system.mem_ctrls1.perBankWrBursts::6            20338                       # Per bank write bursts
system.mem_ctrls1.perBankWrBursts::7            20319                       # Per bank write bursts
system.mem_ctrls1.perBankWrBursts::8            20389                       # Per bank write bursts
system.mem_ctrls1.perBankWrBursts::9            20225                       # Per bank write bursts
system.mem_ctrls1.perBankWrBursts::10           20155                       # Per bank write bursts
system.mem_ctrls1.perBankWrBursts::11           20172                       # Per bank write bursts
system.mem_ctrls1.perBankWrBursts::12           19920                       # Per bank write bursts
system.mem_ctrls1.perBankWrBursts::13           20172                       # Per bank write bursts
system.mem_ctrls1.perBankWrBursts::14           20173                       # Per bank write bursts
system.mem_ctrls1.perBankWrBursts::15           20079                       # Per bank write bursts
system.mem_ctrls1.numRdRetry                    49904                       # Number of times read queue was full causing retry
system.mem_ctrls1.numWrRetry                    10533                       # Number of times write queue was full causing retry
system.mem_ctrls1.totGap                 154070464000                       # Total gap between requests
system.mem_ctrls1.readPktSize::0                    0                       # Read request sizes (log2)
system.mem_ctrls1.readPktSize::1                    0                       # Read request sizes (log2)
system.mem_ctrls1.readPktSize::2                    0                       # Read request sizes (log2)
system.mem_ctrls1.readPktSize::3                    0                       # Read request sizes (log2)
system.mem_ctrls1.readPktSize::4                    0                       # Read request sizes (log2)
system.mem_ctrls1.readPktSize::5                    0                       # Read request sizes (log2)
system.mem_ctrls1.readPktSize::6               382991                       # Read request sizes (log2)
system.mem_ctrls1.writePktSize::0                   0                       # Write request sizes (log2)
system.mem_ctrls1.writePktSize::1                   0                       # Write request sizes (log2)
system.mem_ctrls1.writePktSize::2                   0                       # Write request sizes (log2)
system.mem_ctrls1.writePktSize::3                   0                       # Write request sizes (log2)
system.mem_ctrls1.writePktSize::4                   0                       # Write request sizes (log2)
system.mem_ctrls1.writePktSize::5                   0                       # Write request sizes (log2)
system.mem_ctrls1.writePktSize::6              323254                       # Write request sizes (log2)
system.mem_ctrls1.rdQLenPdf::0                 202555                       # What read queue length does an incoming req see
system.mem_ctrls1.rdQLenPdf::1                   5042                       # What read queue length does an incoming req see
system.mem_ctrls1.rdQLenPdf::2                   5029                       # What read queue length does an incoming req see
system.mem_ctrls1.rdQLenPdf::3                   5668                       # What read queue length does an incoming req see
system.mem_ctrls1.rdQLenPdf::4                   6226                       # What read queue length does an incoming req see
system.mem_ctrls1.rdQLenPdf::5                   6405                       # What read queue length does an incoming req see
system.mem_ctrls1.rdQLenPdf::6                   6302                       # What read queue length does an incoming req see
system.mem_ctrls1.rdQLenPdf::7                   5849                       # What read queue length does an incoming req see
system.mem_ctrls1.rdQLenPdf::8                   5548                       # What read queue length does an incoming req see
system.mem_ctrls1.rdQLenPdf::9                   5305                       # What read queue length does an incoming req see
system.mem_ctrls1.rdQLenPdf::10                  4904                       # What read queue length does an incoming req see
system.mem_ctrls1.rdQLenPdf::11                  4651                       # What read queue length does an incoming req see
system.mem_ctrls1.rdQLenPdf::12                  4516                       # What read queue length does an incoming req see
system.mem_ctrls1.rdQLenPdf::13                  4320                       # What read queue length does an incoming req see
system.mem_ctrls1.rdQLenPdf::14                  4113                       # What read queue length does an incoming req see
system.mem_ctrls1.rdQLenPdf::15                  3896                       # What read queue length does an incoming req see
system.mem_ctrls1.rdQLenPdf::16                  3791                       # What read queue length does an incoming req see
system.mem_ctrls1.rdQLenPdf::17                  3575                       # What read queue length does an incoming req see
system.mem_ctrls1.rdQLenPdf::18                  3534                       # What read queue length does an incoming req see
system.mem_ctrls1.rdQLenPdf::19                  3454                       # What read queue length does an incoming req see
system.mem_ctrls1.rdQLenPdf::20                  3299                       # What read queue length does an incoming req see
system.mem_ctrls1.rdQLenPdf::21                  3269                       # What read queue length does an incoming req see
system.mem_ctrls1.rdQLenPdf::22                  3182                       # What read queue length does an incoming req see
system.mem_ctrls1.rdQLenPdf::23                  3059                       # What read queue length does an incoming req see
system.mem_ctrls1.rdQLenPdf::24                  2953                       # What read queue length does an incoming req see
system.mem_ctrls1.rdQLenPdf::25                  2950                       # What read queue length does an incoming req see
system.mem_ctrls1.rdQLenPdf::26                  2912                       # What read queue length does an incoming req see
system.mem_ctrls1.rdQLenPdf::27                  3036                       # What read queue length does an incoming req see
system.mem_ctrls1.rdQLenPdf::28                  3080                       # What read queue length does an incoming req see
system.mem_ctrls1.rdQLenPdf::29                  3147                       # What read queue length does an incoming req see
system.mem_ctrls1.rdQLenPdf::30                  3343                       # What read queue length does an incoming req see
system.mem_ctrls1.rdQLenPdf::31                 54058                       # What read queue length does an incoming req see
system.mem_ctrls1.wrQLenPdf::0                  48244                       # What write queue length does an incoming req see
system.mem_ctrls1.wrQLenPdf::1                  53089                       # What write queue length does an incoming req see
system.mem_ctrls1.wrQLenPdf::2                  55164                       # What write queue length does an incoming req see
system.mem_ctrls1.wrQLenPdf::3                  55887                       # What write queue length does an incoming req see
system.mem_ctrls1.wrQLenPdf::4                  55932                       # What write queue length does an incoming req see
system.mem_ctrls1.wrQLenPdf::5                  15256                       # What write queue length does an incoming req see
system.mem_ctrls1.wrQLenPdf::6                  16631                       # What write queue length does an incoming req see
system.mem_ctrls1.wrQLenPdf::7                  23051                       # What write queue length does an incoming req see
system.mem_ctrls1.bytesPerActivate::samples       189855                       # Bytes accessed per row activation
system.mem_ctrls1.bytesPerActivate::mean   238.062269                       # Bytes accessed per row activation
system.mem_ctrls1.bytesPerActivate::gmean   187.017228                       # Bytes accessed per row activation
system.mem_ctrls1.bytesPerActivate::stdev   171.835335                       # Bytes accessed per row activation
system.mem_ctrls1.bytesPerActivate::0-127        41595     21.91%     21.91% # Bytes accessed per row activation
system.mem_ctrls1.bytesPerActivate::128-255        56517     29.77%     51.68% # Bytes accessed per row activation
system.mem_ctrls1.bytesPerActivate::256-383        69036     36.36%     88.04% # Bytes accessed per row activation
system.mem_ctrls1.bytesPerActivate::384-511         9347      4.92%     92.96% # Bytes accessed per row activation
system.mem_ctrls1.bytesPerActivate::512-639         5895      3.11%     96.07% # Bytes accessed per row activation
system.mem_ctrls1.bytesPerActivate::640-767         2651      1.40%     97.46% # Bytes accessed per row activation
system.mem_ctrls1.bytesPerActivate::768-895         1598      0.84%     98.31% # Bytes accessed per row activation
system.mem_ctrls1.bytesPerActivate::896-1023         1091      0.57%     98.88% # Bytes accessed per row activation
system.mem_ctrls1.bytesPerActivate::1024-1151         2125      1.12%    100.00% # Bytes accessed per row activation
system.mem_ctrls1.bytesPerActivate::total       189855                       # Bytes accessed per row activation
system.mem_ctrls1.rdPerTurnAround::samples        49949                       # Reads before turning the bus around for writes
system.mem_ctrls1.rdPerTurnAround::mean      7.667100                       # Reads before turning the bus around for writes
system.mem_ctrls1.rdPerTurnAround::stdev    15.303133                       # Reads before turning the bus around for writes
system.mem_ctrls1.rdPerTurnAround::0-127        49943     99.99%     99.99% # Reads before turning the bus around for writes
system.mem_ctrls1.rdPerTurnAround::128-255            4      0.01%    100.00% # Reads before turning the bus around for writes
system.mem_ctrls1.rdPerTurnAround::1152-1279            1      0.00%    100.00% # Reads before turning the bus around for writes
system.mem_ctrls1.rdPerTurnAround::2816-2943            1      0.00%    100.00% # Reads before turning the bus around for writes
system.mem_ctrls1.rdPerTurnAround::total        49949                       # Reads before turning the bus around for writes
system.mem_ctrls1.wrPerTurnAround::samples        49949                       # Writes before turning the bus around for reads
system.mem_ctrls1.wrPerTurnAround::mean      6.471661                       # Writes before turning the bus around for reads
system.mem_ctrls1.wrPerTurnAround::gmean     5.967285                       # Writes before turning the bus around for reads
system.mem_ctrls1.wrPerTurnAround::stdev     3.186820                       # Writes before turning the bus around for reads
system.mem_ctrls1.wrPerTurnAround::4-7          40503     81.09%     81.09% # Writes before turning the bus around for reads
system.mem_ctrls1.wrPerTurnAround::8-11          3761      7.53%     88.62% # Writes before turning the bus around for reads
system.mem_ctrls1.wrPerTurnAround::12-15         3244      6.49%     95.11% # Writes before turning the bus around for reads
system.mem_ctrls1.wrPerTurnAround::16-19         2441      4.89%    100.00% # Writes before turning the bus around for reads
system.mem_ctrls1.wrPerTurnAround::total        49949                       # Writes before turning the bus around for reads
system.mem_ctrls1.totQLat                 44684972220                       # Total ticks spent queuing
system.mem_ctrls1.totMemAccLat            51865678470                       # Total ticks spent from burst creation until serviced by the DRAM
system.mem_ctrls1.totBusLat                1914855000                       # Total ticks spent in databus transfers
system.mem_ctrls1.avgQLat                   116679.78                       # Average queueing delay per DRAM burst
system.mem_ctrls1.avgBusLat                   5000.00                       # Average bus latency per DRAM burst
system.mem_ctrls1.avgMemAccLat              135429.78                       # Average memory access latency per DRAM burst
system.mem_ctrls1.avgRdBW                      159.08                       # Average DRAM read bandwidth in MiByte/s
system.mem_ctrls1.avgWrBW                      134.28                       # Average achieved write bandwidth in MiByte/s
system.mem_ctrls1.avgRdBWSys                   159.09                       # Average system read bandwidth in MiByte/s
system.mem_ctrls1.avgWrBWSys                   134.28                       # Average system write bandwidth in MiByte/s
system.mem_ctrls1.peakBW                     12800.00                       # Theoretical peak bandwidth in MiByte/s
system.mem_ctrls1.busUtil                        2.29                       # Data bus utilization in percentage
system.mem_ctrls1.busUtilRead                    1.24                       # Data bus utilization in percentage for reads
system.mem_ctrls1.busUtilWrite                   1.05                       # Data bus utilization in percentage for writes
system.mem_ctrls1.avgRdQLen                      1.30                       # Average read queue length when enqueuing
system.mem_ctrls1.avgWrQLen                      2.99                       # Average write queue length when enqueuing
system.mem_ctrls1.readRowHits                  288318                       # Number of row buffer hits during reads
system.mem_ctrls1.writeRowHits                 228043                       # Number of row buffer hits during writes
system.mem_ctrls1.readRowHitRate                75.28                       # Row buffer hit rate for reads
system.mem_ctrls1.writeRowHitRate               70.55                       # Row buffer hit rate for writes
system.mem_ctrls1.avgGap                    218154.41                       # Average gap between requests
system.mem_ctrls1.pageHitRate                   73.12                       # Row buffer hit rate, read and write combined
system.mem_ctrls1.memoryStateTime::IDLE   27041890500                       # Time in different power states
system.mem_ctrls1.memoryStateTime::REF     5144620000                       # Time in different power states
system.mem_ctrls1.memoryStateTime::PRE_PDN            0                       # Time in different power states
system.mem_ctrls1.memoryStateTime::ACT   121880292000                       # Time in different power states
system.mem_ctrls1.memoryStateTime::ACT_PDN            0                       # Time in different power states
system.mem_ctrls1.actEnergy::0              724142160                       # Energy for activate commands per rank (pJ)
system.mem_ctrls1.actEnergy::1              711070920                       # Energy for activate commands per rank (pJ)
system.mem_ctrls1.preEnergy::0              395117250                       # Energy for precharge commands per rank (pJ)
system.mem_ctrls1.preEnergy::1              387985125                       # Energy for precharge commands per rank (pJ)
system.mem_ctrls1.readEnergy::0            1500759000                       # Energy for read commands per rank (pJ)
system.mem_ctrls1.readEnergy::1            1486219800                       # Energy for read commands per rank (pJ)
system.mem_ctrls1.writeEnergy::0           1049487840                       # Energy for write commands per rank (pJ)
system.mem_ctrls1.writeEnergy::1           1045068480                       # Energy for write commands per rank (pJ)
system.mem_ctrls1.refreshEnergy::0        10062876720                       # Energy for refresh commands per rank (pJ)
system.mem_ctrls1.refreshEnergy::1        10062876720                       # Energy for refresh commands per rank (pJ)
system.mem_ctrls1.actBackEnergy::0        60255352080                       # Energy for active background per rank (pJ)
system.mem_ctrls1.actBackEnergy::1        59780284155                       # Energy for active background per rank (pJ)
system.mem_ctrls1.preBackEnergy::0        39584501250                       # Energy for precharge background per rank (pJ)
system.mem_ctrls1.preBackEnergy::1        40001227500                       # Energy for precharge background per rank (pJ)
system.mem_ctrls1.totalEnergy::0         113572236300                       # Total energy per rank (pJ)
system.mem_ctrls1.totalEnergy::1         113474732700                       # Total energy per rank (pJ)
system.mem_ctrls1.averagePower::0          737.162352                       # Core power per rank (mW)
system.mem_ctrls1.averagePower::1          736.529486                       # Core power per rank (mW)
system.mem_ctrls2.bytes_read::ruby.dir_cntrl2     24511488                       # Number of bytes read from this memory
system.mem_ctrls2.bytes_read::total          24511488                       # Number of bytes read from this memory
system.mem_ctrls2.bytes_written::ruby.dir_cntrl2     20689216                       # Number of bytes written to this memory
system.mem_ctrls2.bytes_written::total       20689216                       # Number of bytes written to this memory
system.mem_ctrls2.num_reads::ruby.dir_cntrl2       382992                       # Number of read requests responded to by this memory
system.mem_ctrls2.num_reads::total             382992                       # Number of read requests responded to by this memory
system.mem_ctrls2.num_writes::ruby.dir_cntrl2       323269                       # Number of write requests responded to by this memory
system.mem_ctrls2.num_writes::total            323269                       # Number of write requests responded to by this memory
system.mem_ctrls2.bw_read::ruby.dir_cntrl2    159091933                       # Total read bandwidth from this memory (bytes/s)
system.mem_ctrls2.bw_read::total            159091933                       # Total read bandwidth from this memory (bytes/s)
system.mem_ctrls2.bw_write::ruby.dir_cntrl2    134283458                       # Write bandwidth from this memory (bytes/s)
system.mem_ctrls2.bw_write::total           134283458                       # Write bandwidth from this memory (bytes/s)
system.mem_ctrls2.bw_total::ruby.dir_cntrl2    293375390                       # Total bandwidth to/from this memory (bytes/s)
system.mem_ctrls2.bw_total::total           293375390                       # Total bandwidth to/from this memory (bytes/s)
system.mem_ctrls2.readReqs                     382992                       # Number of read requests accepted
system.mem_ctrls2.writeReqs                    323269                       # Number of write requests accepted
system.mem_ctrls2.readBursts                   382992                       # Number of DRAM read bursts, including those serviced by the write queue
system.mem_ctrls2.writeBursts                  323269                       # Number of DRAM write bursts, including those merged in the write queue
system.mem_ctrls2.bytesReadDRAM              24510272                       # Total number of bytes read from DRAM
system.mem_ctrls2.bytesReadWrQ                   1216                       # Total number of bytes read from write queue
system.mem_ctrls2.bytesWritten               20689088                       # Total number of bytes written to DRAM
system.mem_ctrls2.bytesReadSys               24511488                       # Total read bytes from the system interface side
system.mem_ctrls2.bytesWrittenSys            20689216                       # Total written bytes from the system interface side
system.mem_ctrls2.servicedByWrQ                    19                       # Number of DRAM read bursts serviced by the write queue
system.mem_ctrls2.mergedWrBursts                    0                       # Number of DRAM write bursts merged with an existing one
system.mem_ctrls2.neitherReadNorWriteReqs            0                       # Number of requests that are neither read nor write
system.mem_ctrls2.perBankRdBursts::0            23640                       # Per bank write bursts
system.mem_ctrls2.perBankRdBursts::1            24305                       # Per bank write bursts
system.mem_ctrls2.perBankRdBursts::2            23941                       # Per bank write bursts
system.mem_ctrls2.perBankRdBursts::3            24276                       # Per bank write bursts
system.mem_ctrls2.perBankRdBursts::4            23871                       # Per bank write bursts
system.mem_ctrls2.perBankRdBursts::5            24157                       # Per bank write bursts
system.mem_ctrls2.perBankRdBursts::6            24231                       # Per bank write bursts
system.mem_ctrls2.perBankRdBursts::7            24031                       # Per bank write bursts
system.mem_ctrls2.perBankRdBursts::8            23901                       # Per bank write bursts
system.mem_ctrls2.perBankRdBursts::9            24050                       # Per bank write bursts
system.mem_ctrls2.perBankRdBursts::10           23816                       # Per bank write bursts
system.mem_ctrls2.perBankRdBursts::11           24324                       # Per bank write bursts
system.mem_ctrls2.perBankRdBursts::12           23625                       # Per bank write bursts
system.mem_ctrls2.perBankRdBursts::13           23436                       # Per bank write bursts
system.mem_ctrls2.perBankRdBursts::14           23589                       # Per bank write bursts
system.mem_ctrls2.perBankRdBursts::15           23780                       # Per bank write bursts
system.mem_ctrls2.perBankWrBursts::0            20222                       # Per bank write bursts
system.mem_ctrls2.perBankWrBursts::1            20108                       # Per bank write bursts
system.mem_ctrls2.perBankWrBursts::2            20130                       # Per bank write bursts
system.mem_ctrls2.perBankWrBursts::3            20419                       # Per bank write bursts
system.mem_ctrls2.perBankWrBursts::4            20057                       # Per bank write bursts
system.mem_ctrls2.perBankWrBursts::5            20354                       # Per bank write bursts
system.mem_ctrls2.perBankWrBursts::6            20346                       # Per bank write bursts
system.mem_ctrls2.perBankWrBursts::7            20326                       # Per bank write bursts
system.mem_ctrls2.perBankWrBursts::8            20391                       # Per bank write bursts
system.mem_ctrls2.perBankWrBursts::9            20231                       # Per bank write bursts
system.mem_ctrls2.perBankWrBursts::10           20143                       # Per bank write bursts
system.mem_ctrls2.perBankWrBursts::11           20168                       # Per bank write bursts
system.mem_ctrls2.perBankWrBursts::12           19928                       # Per bank write bursts
system.mem_ctrls2.perBankWrBursts::13           20169                       # Per bank write bursts
system.mem_ctrls2.perBankWrBursts::14           20179                       # Per bank write bursts
system.mem_ctrls2.perBankWrBursts::15           20096                       # Per bank write bursts
system.mem_ctrls2.numRdRetry                    50040                       # Number of times read queue was full causing retry
system.mem_ctrls2.numWrRetry                    10325                       # Number of times write queue was full causing retry
system.mem_ctrls2.totGap                 154070390500                       # Total gap between requests
system.mem_ctrls2.readPktSize::0                    0                       # Read request sizes (log2)
system.mem_ctrls2.readPktSize::1                    0                       # Read request sizes (log2)
system.mem_ctrls2.readPktSize::2                    0                       # Read request sizes (log2)
system.mem_ctrls2.readPktSize::3                    0                       # Read request sizes (log2)
system.mem_ctrls2.readPktSize::4                    0                       # Read request sizes (log2)
system.mem_ctrls2.readPktSize::5                    0                       # Read request sizes (log2)
system.mem_ctrls2.readPktSize::6               382992                       # Read request sizes (log2)
system.mem_ctrls2.writePktSize::0                   0                       # Write request sizes (log2)
system.mem_ctrls2.writePktSize::1                   0                       # Write request sizes (log2)
system.mem_ctrls2.writePktSize::2                   0                       # Write request sizes (log2)
system.mem_ctrls2.writePktSize::3                   0                       # Write request sizes (log2)
system.mem_ctrls2.writePktSize::4                   0                       # Write request sizes (log2)
system.mem_ctrls2.writePktSize::5                   0                       # Write request sizes (log2)
system.mem_ctrls2.writePktSize::6              323269                       # Write request sizes (log2)
system.mem_ctrls2.rdQLenPdf::0                 202848                       # What read queue length does an incoming req see
system.mem_ctrls2.rdQLenPdf::1                   4938                       # What read queue length does an incoming req see
system.mem_ctrls2.rdQLenPdf::2                   5111                       # What read queue length does an incoming req see
system.mem_ctrls2.rdQLenPdf::3                   5804                       # What read queue length does an incoming req see
system.mem_ctrls2.rdQLenPdf::4                   6304                       # What read queue length does an incoming req see
system.mem_ctrls2.rdQLenPdf::5                   6385                       # What read queue length does an incoming req see
system.mem_ctrls2.rdQLenPdf::6                   6231                       # What read queue length does an incoming req see
system.mem_ctrls2.rdQLenPdf::7                   5881                       # What read queue length does an incoming req see
system.mem_ctrls2.rdQLenPdf::8                   5590                       # What read queue length does an incoming req see
system.mem_ctrls2.rdQLenPdf::9                   5300                       # What read queue length does an incoming req see
system.mem_ctrls2.rdQLenPdf::10                  5007                       # What read queue length does an incoming req see
system.mem_ctrls2.rdQLenPdf::11                  4699                       # What read queue length does an incoming req see
system.mem_ctrls2.rdQLenPdf::12                  4360                       # What read queue length does an incoming req see
system.mem_ctrls2.rdQLenPdf::13                  4198                       # What read queue length does an incoming req see
system.mem_ctrls2.rdQLenPdf::14                  3994                       # What read queue length does an incoming req see
system.mem_ctrls2.rdQLenPdf::15                  3841                       # What read queue length does an incoming req see
system.mem_ctrls2.rdQLenPdf::16                  3760                       # What read queue length does an incoming req see
system.mem_ctrls2.rdQLenPdf::17                  3613                       # What read queue length does an incoming req see
system.mem_ctrls2.rdQLenPdf::18                  3448                       # What read queue length does an incoming req see
system.mem_ctrls2.rdQLenPdf::19                  3375                       # What read queue length does an incoming req see
system.mem_ctrls2.rdQLenPdf::20                  3375                       # What read queue length does an incoming req see
system.mem_ctrls2.rdQLenPdf::21                  3300                       # What read queue length does an incoming req see
system.mem_ctrls2.rdQLenPdf::22                  3073                       # What read queue length does an incoming req see
system.mem_ctrls2.rdQLenPdf::23                  2904                       # What read queue length does an incoming req see
system.mem_ctrls2.rdQLenPdf::24                  2872                       # What read queue length does an incoming req see
system.mem_ctrls2.rdQLenPdf::25                  2834                       # What read queue length does an incoming req see
system.mem_ctrls2.rdQLenPdf::26                  2921                       # What read queue length does an incoming req see
system.mem_ctrls2.rdQLenPdf::27                  3009                       # What read queue length does an incoming req see
system.mem_ctrls2.rdQLenPdf::28                  3075                       # What read queue length does an incoming req see
system.mem_ctrls2.rdQLenPdf::29                  3172                       # What read queue length does an incoming req see
system.mem_ctrls2.rdQLenPdf::30                  3447                       # What read queue length does an incoming req see
system.mem_ctrls2.rdQLenPdf::31                 54304                       # What read queue length does an incoming req see
system.mem_ctrls2.wrQLenPdf::0                  48304                       # What write queue length does an incoming req see
system.mem_ctrls2.wrQLenPdf::1                  53093                       # What write queue length does an incoming req see
system.mem_ctrls2.wrQLenPdf::2                  54924                       # What write queue length does an incoming req see
system.mem_ctrls2.wrQLenPdf::3                  55785                       # What write queue length does an incoming req see
system.mem_ctrls2.wrQLenPdf::4                  55876                       # What write queue length does an incoming req see
system.mem_ctrls2.wrQLenPdf::5                  15451                       # What write queue length does an incoming req see
system.mem_ctrls2.wrQLenPdf::6                  16831                       # What write queue length does an incoming req see
system.mem_ctrls2.wrQLenPdf::7                  23005                       # What write queue length does an incoming req see
system.mem_ctrls2.bytesPerActivate::samples       188700                       # Bytes accessed per row activation
system.mem_ctrls2.bytesPerActivate::mean   239.526868                       # Bytes accessed per row activation
system.mem_ctrls2.bytesPerActivate::gmean   188.578595                       # Bytes accessed per row activation
system.mem_ctrls2.bytesPerActivate::stdev   172.026022                       # Bytes accessed per row activation
system.mem_ctrls2.bytesPerActivate::0-127        40402     21.41%     21.41% # Bytes accessed per row activation
system.mem_ctrls2.bytesPerActivate::128-255        55750     29.54%     50.95% # Bytes accessed per row activation
system.mem_ctrls2.bytesPerActivate::256-383        69715     36.94%     87.90% # Bytes accessed per row activation
system.mem_ctrls2.bytesPerActivate::384-511         9476      5.02%     92.92% # Bytes accessed per row activation
system.mem_ctrls2.bytesPerActivate::512-639         5813      3.08%     96.00% # Bytes accessed per row activation
system.mem_ctrls2.bytesPerActivate::640-767         2698      1.43%     97.43% # Bytes accessed per row activation
system.mem_ctrls2.bytesPerActivate::768-895         1603      0.85%     98.28% # Bytes accessed per row activation
system.mem_ctrls2.bytesPerActivate::896-1023         1056      0.56%     98.84% # Bytes accessed per row activation
system.mem_ctrls2.bytesPerActivate::1024-1151         2187      1.16%    100.00% # Bytes accessed per row activation
system.mem_ctrls2.bytesPerActivate::total       188700                       # Bytes accessed per row activation
system.mem_ctrls2.rdPerTurnAround::samples        49986                       # Reads before turning the bus around for writes
system.mem_ctrls2.rdPerTurnAround::mean      7.661545                       # Reads before turning the bus around for writes
system.mem_ctrls2.rdPerTurnAround::stdev    15.349540                       # Reads before turning the bus around for writes
system.mem_ctrls2.rdPerTurnAround::0-127        49980     99.99%     99.99% # Reads before turning the bus around for writes
system.mem_ctrls2.rdPerTurnAround::128-255            4      0.01%    100.00% # Reads before turning the bus around for writes
system.mem_ctrls2.rdPerTurnAround::1152-1279            1      0.00%    100.00% # Reads before turning the bus around for writes
system.mem_ctrls2.rdPerTurnAround::2816-2943            1      0.00%    100.00% # Reads before turning the bus around for writes
system.mem_ctrls2.rdPerTurnAround::total        49986                       # Reads before turning the bus around for writes
system.mem_ctrls2.wrPerTurnAround::samples        49986                       # Writes before turning the bus around for reads
system.mem_ctrls2.wrPerTurnAround::mean      6.467151                       # Writes before turning the bus around for reads
system.mem_ctrls2.wrPerTurnAround::gmean     5.965696                       # Writes before turning the bus around for reads
system.mem_ctrls2.wrPerTurnAround::stdev     3.174151                       # Writes before turning the bus around for reads
system.mem_ctrls2.wrPerTurnAround::4-7          40478     80.98%     80.98% # Writes before turning the bus around for reads
system.mem_ctrls2.wrPerTurnAround::8-11          3847      7.70%     88.67% # Writes before turning the bus around for reads
system.mem_ctrls2.wrPerTurnAround::12-15         3293      6.59%     95.26% # Writes before turning the bus around for reads
system.mem_ctrls2.wrPerTurnAround::16-19         2368      4.74%    100.00% # Writes before turning the bus around for reads
system.mem_ctrls2.wrPerTurnAround::total        49986                       # Writes before turning the bus around for reads
system.mem_ctrls2.totQLat                 44611472822                       # Total ticks spent queuing
system.mem_ctrls2.totMemAccLat            51792216572                       # Total ticks spent from burst creation until serviced by the DRAM
system.mem_ctrls2.totBusLat                1914865000                       # Total ticks spent in databus transfers
system.mem_ctrls2.avgQLat                   116487.25                       # Average queueing delay per DRAM burst
system.mem_ctrls2.avgBusLat                   5000.00                       # Average bus latency per DRAM burst
system.mem_ctrls2.avgMemAccLat              135237.25                       # Average memory access latency per DRAM burst
system.mem_ctrls2.avgRdBW                      159.08                       # Average DRAM read bandwidth in MiByte/s
system.mem_ctrls2.avgWrBW                      134.28                       # Average achieved write bandwidth in MiByte/s
system.mem_ctrls2.avgRdBWSys                   159.09                       # Average system read bandwidth in MiByte/s
system.mem_ctrls2.avgWrBWSys                   134.28                       # Average system write bandwidth in MiByte/s
system.mem_ctrls2.peakBW                     12800.00                       # Theoretical peak bandwidth in MiByte/s
system.mem_ctrls2.busUtil                        2.29                       # Data bus utilization in percentage
system.mem_ctrls2.busUtilRead                    1.24                       # Data bus utilization in percentage for reads
system.mem_ctrls2.busUtilWrite                   1.05                       # Data bus utilization in percentage for writes
system.mem_ctrls2.avgRdQLen                      1.30                       # Average read queue length when enqueuing
system.mem_ctrls2.avgWrQLen                      3.00                       # Average write queue length when enqueuing
system.mem_ctrls2.readRowHits                  288627                       # Number of row buffer hits during reads
system.mem_ctrls2.writeRowHits                 228903                       # Number of row buffer hits during writes
system.mem_ctrls2.readRowHitRate                75.36                       # Row buffer hit rate for reads
system.mem_ctrls2.writeRowHitRate               70.81                       # Row buffer hit rate for writes
system.mem_ctrls2.avgGap                    218149.37                       # Average gap between requests
system.mem_ctrls2.pageHitRate                   73.28                       # Row buffer hit rate, read and write combined
system.mem_ctrls2.memoryStateTime::IDLE   27138611750                       # Time in different power states
system.mem_ctrls2.memoryStateTime::REF     5144620000                       # Time in different power states
system.mem_ctrls2.memoryStateTime::PRE_PDN            0                       # Time in different power states
system.mem_ctrls2.memoryStateTime::ACT   121783570750                       # Time in different power states
system.mem_ctrls2.memoryStateTime::ACT_PDN            0                       # Time in different power states
system.mem_ctrls2.actEnergy::0              720347040                       # Energy for activate commands per rank (pJ)
system.mem_ctrls2.actEnergy::1              706126680                       # Energy for activate commands per rank (pJ)
system.mem_ctrls2.preEnergy::0              393046500                       # Energy for precharge commands per rank (pJ)
system.mem_ctrls2.preEnergy::1              385287375                       # Energy for precharge commands per rank (pJ)
system.mem_ctrls2.readEnergy::0            1501000800                       # Energy for read commands per rank (pJ)
system.mem_ctrls2.readEnergy::1            1486017000                       # Energy for read commands per rank (pJ)
system.mem_ctrls2.writeEnergy::0           1049455440                       # Energy for write commands per rank (pJ)
system.mem_ctrls2.writeEnergy::1           1045191600                       # Energy for write commands per rank (pJ)
system.mem_ctrls2.refreshEnergy::0        10062876720                       # Energy for refresh commands per rank (pJ)
system.mem_ctrls2.refreshEnergy::1        10062876720                       # Energy for refresh commands per rank (pJ)
system.mem_ctrls2.actBackEnergy::0        59832393840                       # Energy for active background per rank (pJ)
system.mem_ctrls2.actBackEnergy::1        59370455295                       # Energy for active background per rank (pJ)
system.mem_ctrls2.preBackEnergy::0        39955517250                       # Energy for precharge background per rank (pJ)
system.mem_ctrls2.preBackEnergy::1        40360726500                       # Energy for precharge background per rank (pJ)
system.mem_ctrls2.totalEnergy::0         113514637590                       # Total energy per rank (pJ)
system.mem_ctrls2.totalEnergy::1         113416681170                       # Total energy per rank (pJ)
system.mem_ctrls2.averagePower::0          736.788496                       # Core power per rank (mW)
system.mem_ctrls2.averagePower::1          736.152691                       # Core power per rank (mW)
system.mem_ctrls3.bytes_read::ruby.dir_cntrl3     24491328                       # Number of bytes read from this memory
system.mem_ctrls3.bytes_read::total          24491328                       # Number of bytes read from this memory
system.mem_ctrls3.bytes_written::ruby.dir_cntrl3     20687488                       # Number of bytes written to this memory
system.mem_ctrls3.bytes_written::total       20687488                       # Number of bytes written to this memory
system.mem_ctrls3.num_reads::ruby.dir_cntrl3       382677                       # Number of read requests responded to by this memory
system.mem_ctrls3.num_reads::total             382677                       # Number of read requests responded to by this memory
system.mem_ctrls3.num_writes::ruby.dir_cntrl3       323242                       # Number of write requests responded to by this memory
system.mem_ctrls3.num_writes::total            323242                       # Number of write requests responded to by this memory
system.mem_ctrls3.bw_read::ruby.dir_cntrl3    158961084                       # Total read bandwidth from this memory (bytes/s)
system.mem_ctrls3.bw_read::total            158961084                       # Total read bandwidth from this memory (bytes/s)
system.mem_ctrls3.bw_write::ruby.dir_cntrl3    134272242                       # Write bandwidth from this memory (bytes/s)
system.mem_ctrls3.bw_write::total           134272242                       # Write bandwidth from this memory (bytes/s)
system.mem_ctrls3.bw_total::ruby.dir_cntrl3    293233326                       # Total bandwidth to/from this memory (bytes/s)
system.mem_ctrls3.bw_total::total           293233326                       # Total bandwidth to/from this memory (bytes/s)
system.mem_ctrls3.readReqs                     382677                       # Number of read requests accepted
system.mem_ctrls3.writeReqs                    323242                       # Number of write requests accepted
system.mem_ctrls3.readBursts                   382677                       # Number of DRAM read bursts, including those serviced by the write queue
system.mem_ctrls3.writeBursts                  323242                       # Number of DRAM write bursts, including those merged in the write queue
system.mem_ctrls3.bytesReadDRAM              24490688                       # Total number of bytes read from DRAM
system.mem_ctrls3.bytesReadWrQ                    640                       # Total number of bytes read from write queue
system.mem_ctrls3.bytesWritten               20687360                       # Total number of bytes written to DRAM
system.mem_ctrls3.bytesReadSys               24491328                       # Total read bytes from the system interface side
system.mem_ctrls3.bytesWrittenSys            20687488                       # Total written bytes from the system interface side
system.mem_ctrls3.servicedByWrQ                    10                       # Number of DRAM read bursts serviced by the write queue
system.mem_ctrls3.mergedWrBursts                    0                       # Number of DRAM write bursts merged with an existing one
system.mem_ctrls3.neitherReadNorWriteReqs            0                       # Number of requests that are neither read nor write
system.mem_ctrls3.perBankRdBursts::0            23630                       # Per bank write bursts
system.mem_ctrls3.perBankRdBursts::1            24303                       # Per bank write bursts
system.mem_ctrls3.perBankRdBursts::2            23817                       # Per bank write bursts
system.mem_ctrls3.perBankRdBursts::3            24238                       # Per bank write bursts
system.mem_ctrls3.perBankRdBursts::4            23816                       # Per bank write bursts
system.mem_ctrls3.perBankRdBursts::5            24165                       # Per bank write bursts
system.mem_ctrls3.perBankRdBursts::6            24228                       # Per bank write bursts
system.mem_ctrls3.perBankRdBursts::7            24036                       # Per bank write bursts
system.mem_ctrls3.perBankRdBursts::8            23888                       # Per bank write bursts
system.mem_ctrls3.perBankRdBursts::9            24027                       # Per bank write bursts
system.mem_ctrls3.perBankRdBursts::10           23882                       # Per bank write bursts
system.mem_ctrls3.perBankRdBursts::11           24275                       # Per bank write bursts
system.mem_ctrls3.perBankRdBursts::12           23558                       # Per bank write bursts
system.mem_ctrls3.perBankRdBursts::13           23447                       # Per bank write bursts
system.mem_ctrls3.perBankRdBursts::14           23607                       # Per bank write bursts
system.mem_ctrls3.perBankRdBursts::15           23750                       # Per bank write bursts
system.mem_ctrls3.perBankWrBursts::0            20227                       # Per bank write bursts
system.mem_ctrls3.perBankWrBursts::1            20105                       # Per bank write bursts
system.mem_ctrls3.perBankWrBursts::2            20134                       # Per bank write bursts
system.mem_ctrls3.perBankWrBursts::3            20407                       # Per bank write bursts
system.mem_ctrls3.perBankWrBursts::4            20052                       # Per bank write bursts
system.mem_ctrls3.perBankWrBursts::5            20356                       # Per bank write bursts
system.mem_ctrls3.perBankWrBursts::6            20350                       # Per bank write bursts
system.mem_ctrls3.perBankWrBursts::7            20314                       # Per bank write bursts
system.mem_ctrls3.perBankWrBursts::8            20385                       # Per bank write bursts
system.mem_ctrls3.perBankWrBursts::9            20230                       # Per bank write bursts
system.mem_ctrls3.perBankWrBursts::10           20144                       # Per bank write bursts
system.mem_ctrls3.perBankWrBursts::11           20181                       # Per bank write bursts
system.mem_ctrls3.perBankWrBursts::12           19926                       # Per bank write bursts
system.mem_ctrls3.perBankWrBursts::13           20175                       # Per bank write bursts
system.mem_ctrls3.perBankWrBursts::14           20178                       # Per bank write bursts
system.mem_ctrls3.perBankWrBursts::15           20076                       # Per bank write bursts
system.mem_ctrls3.numRdRetry                    48911                       # Number of times read queue was full causing retry
system.mem_ctrls3.numWrRetry                    10181                       # Number of times write queue was full causing retry
system.mem_ctrls3.totGap                 154070095000                       # Total gap between requests
system.mem_ctrls3.readPktSize::0                    0                       # Read request sizes (log2)
system.mem_ctrls3.readPktSize::1                    0                       # Read request sizes (log2)
system.mem_ctrls3.readPktSize::2                    0                       # Read request sizes (log2)
system.mem_ctrls3.readPktSize::3                    0                       # Read request sizes (log2)
system.mem_ctrls3.readPktSize::4                    0                       # Read request sizes (log2)
system.mem_ctrls3.readPktSize::5                    0                       # Read request sizes (log2)
system.mem_ctrls3.readPktSize::6               382677                       # Read request sizes (log2)
system.mem_ctrls3.writePktSize::0                   0                       # Write request sizes (log2)
system.mem_ctrls3.writePktSize::1                   0                       # Write request sizes (log2)
system.mem_ctrls3.writePktSize::2                   0                       # Write request sizes (log2)
system.mem_ctrls3.writePktSize::3                   0                       # Write request sizes (log2)
system.mem_ctrls3.writePktSize::4                   0                       # Write request sizes (log2)
system.mem_ctrls3.writePktSize::5                   0                       # Write request sizes (log2)
system.mem_ctrls3.writePktSize::6              323242                       # Write request sizes (log2)
system.mem_ctrls3.rdQLenPdf::0                 202385                       # What read queue length does an incoming req see
system.mem_ctrls3.rdQLenPdf::1                   4972                       # What read queue length does an incoming req see
system.mem_ctrls3.rdQLenPdf::2                   5118                       # What read queue length does an incoming req see
system.mem_ctrls3.rdQLenPdf::3                   5795                       # What read queue length does an incoming req see
system.mem_ctrls3.rdQLenPdf::4                   6287                       # What read queue length does an incoming req see
system.mem_ctrls3.rdQLenPdf::5                   6521                       # What read queue length does an incoming req see
system.mem_ctrls3.rdQLenPdf::6                   6465                       # What read queue length does an incoming req see
system.mem_ctrls3.rdQLenPdf::7                   6130                       # What read queue length does an incoming req see
system.mem_ctrls3.rdQLenPdf::8                   5842                       # What read queue length does an incoming req see
system.mem_ctrls3.rdQLenPdf::9                   5466                       # What read queue length does an incoming req see
system.mem_ctrls3.rdQLenPdf::10                  5084                       # What read queue length does an incoming req see
system.mem_ctrls3.rdQLenPdf::11                  4718                       # What read queue length does an incoming req see
system.mem_ctrls3.rdQLenPdf::12                  4384                       # What read queue length does an incoming req see
system.mem_ctrls3.rdQLenPdf::13                  4264                       # What read queue length does an incoming req see
system.mem_ctrls3.rdQLenPdf::14                  3977                       # What read queue length does an incoming req see
system.mem_ctrls3.rdQLenPdf::15                  3822                       # What read queue length does an incoming req see
system.mem_ctrls3.rdQLenPdf::16                  3607                       # What read queue length does an incoming req see
system.mem_ctrls3.rdQLenPdf::17                  3510                       # What read queue length does an incoming req see
system.mem_ctrls3.rdQLenPdf::18                  3501                       # What read queue length does an incoming req see
system.mem_ctrls3.rdQLenPdf::19                  3357                       # What read queue length does an incoming req see
system.mem_ctrls3.rdQLenPdf::20                  3242                       # What read queue length does an incoming req see
system.mem_ctrls3.rdQLenPdf::21                  3122                       # What read queue length does an incoming req see
system.mem_ctrls3.rdQLenPdf::22                  3018                       # What read queue length does an incoming req see
system.mem_ctrls3.rdQLenPdf::23                  3001                       # What read queue length does an incoming req see
system.mem_ctrls3.rdQLenPdf::24                  2959                       # What read queue length does an incoming req see
[...]
system.ruby.L2Cache_Controller.S_I.Ack_all::total           14                      
system.ruby.L2Cache_Controller.ISS.L1_GETS |           2    100.00%    100.00% |           0      0.00%    100.00% |           0      0.00%    100.00% |           0      0.00%    100.00% |           0      0.00%    100.00% |           0      0.00%    100.00% |           0      0.00%    100.00% |           0      0.00%    100.00% |           0      0.00%    100.00% |           0      0.00%    100.00% |           0      0.00%    100.00% |           0      0.00%    100.00% |           0      0.00%    100.00% |           0      0.00%    100.00% |           0      0.00%    100.00% |           0      0.00%    100.00% |           0      0.00%    100.00% |           0      0.00%    100.00% |           0      0.00%    100.00% |           0      0.00%    100.00% |           0      0.00%    100.00% |           0      0.00%    100.00% |           0      0.00%    100.00% |           0      0.00%    100.00% |           0      0.00%    100.00% |           0      0.00%    100.00% |           0      0.00%    100.00% |           0      0.00%    100.00% |           0      0.00%    100.00% |           0      0.00%    100.00% |           0      0.00%    100.00% |           0      0.00%    100.00%
system.ruby.L2Cache_Controller.ISS.L1_GETS::total            2                      
system.ruby.L2Cache_Controller.ISS.Mem_Data |       18686      7.93%      7.93% |        7079      3.00%     10.93% |        7086      3.01%     13.94% |        7032      2.98%     16.92% |        7003      2.97%     19.89% |        6986      2.96%     22.85% |        6997      2.97%     25.82% |        6991      2.97%     28.79% |        7031      2.98%     31.77% |        7032      2.98%     34.75% |        7065      3.00%     37.75% |        6989      2.96%     40.71% |        6994      2.97%     43.68% |        6994      2.97%     46.65% |        6995      2.97%     49.61% |        6958      2.95%     52.57% |        6997      2.97%     55.53% |        6976      2.96%     58.49% |        7005      2.97%     61.46% |        6984      2.96%     64.43% |        6983      2.96%     67.39% |        6969      2.96%     70.35% |        6994      2.97%     73.31% |        6985      2.96%     76.28% |        7003      2.97%     79.25% |        7006      2.97%     82.22% |        6987      2.96%     85.18% |        6963      2.95%     88.14% |        7004      2.97%     91.11% |        6983      2.96%     94.07% |        6959      2.95%     97.02% |        7023      2.98%    100.00%
system.ruby.L2Cache_Controller.ISS.Mem_Data::total       235739                      
system.ruby.L2Cache_Controller.IS.Mem_Data |         545      3.26%      3.26% |         471      2.82%      6.08% |         466      2.79%      8.87% |         466      2.79%     11.66% |         512      3.07%     14.73% |         468      2.80%     17.53% |         506      3.03%     20.56% |         532      3.18%     23.74% |         549      3.29%     27.03% |         491      2.94%     29.97% |         536      3.21%     33.18% |         568      3.40%     36.58% |         623      3.73%     40.31% |         567      3.39%     43.70% |         582      3.48%     47.19% |         526      3.15%     50.34% |         536      3.21%     53.54% |         574      3.44%     56.98% |         566      3.39%     60.37% |         512      3.07%     63.43% |         506      3.03%     66.46% |         524      3.14%     69.60% |         483      2.89%     72.49% |         471      2.82%     75.31% |         547      3.27%     78.59% |         595      3.56%     82.15% |         534      3.20%     85.34% |         482      2.89%     88.23% |         493      2.95%     91.18% |         512      3.07%     94.25% |         492      2.95%     97.19% |         469      2.81%    100.00%
system.ruby.L2Cache_Controller.IS.Mem_Data::total        16704                      
system.ruby.L2Cache_Controller.IM.L1_GETX |           1    100.00%    100.00% |           0      0.00%    100.00% |           0      0.00%    100.00% |           0      0.00%    100.00% |           0      0.00%    100.00% |           0      0.00%    100.00% |           0      0.00%    100.00% |           0      0.00%    100.00% |           0      0.00%    100.00% |           0      0.00%    100.00% |           0      0.00%    100.00% |           0      0.00%    100.00% |           0      0.00%    100.00% |           0      0.00%    100.00% |           0      0.00%    100.00% |           0      0.00%    100.00% |           0      0.00%    100.00% |           0      0.00%    100.00% |           0      0.00%    100.00% |           0      0.00%    100.00% |           0      0.00%    100.00% |           0      0.00%    100.00% |           0      0.00%    100.00% |           0      0.00%    100.00% |           0      0.00%    100.00% |           0      0.00%    100.00% |           0      0.00%    100.00% |           0      0.00%    100.00% |           0      0.00%    100.00% |           0      0.00%    100.00% |           0      0.00%    100.00% |           0      0.00%    100.00%
system.ruby.L2Cache_Controller.IM.L1_GETX::total            1                      
system.ruby.L2Cache_Controller.IM.Mem_Data |       40410      3.13%      3.13% |       40330      3.12%      6.25% |       40342      3.12%      9.38% |       40347      3.13%     12.50% |       40353      3.13%     15.63% |       40363      3.13%     18.76% |       40339      3.12%     21.88% |       40336      3.12%     25.00% |       40350      3.13%     28.13% |       40344      3.12%     31.25% |       40329      3.12%     34.38% |       40358      3.13%     37.50% |       40339      3.12%     40.63% |       40338      3.12%     43.75% |       40341      3.12%     46.88% |       40330      3.12%     50.00% |       40352      3.13%     53.13% |       40352      3.13%     56.25% |       40349      3.13%     59.38% |       40345      3.12%     62.50% |       40340      3.12%     65.63% |       40354      3.13%     68.75% |       40339      3.12%     71.88% |       40341      3.12%     75.00% |       40347      3.13%     78.13% |       40345      3.12%     81.25% |       40349      3.13%     84.38% |       40337      3.12%     87.50% |       40336      3.12%     90.63% |       40338      3.12%     93.75% |       40351      3.13%     96.88% |       40332      3.12%    100.00%
system.ruby.L2Cache_Controller.IM.Mem_Data::total      1291056                      
system.ruby.L2Cache_Controller.SS_MB.Exclusive_Unblock |           4      8.89%      8.89% |           6     13.33%     22.22% |           2      4.44%     26.67% |           6     13.33%     40.00% |           1      2.22%     42.22% |           0      0.00%     42.22% |           1      2.22%     44.44% |           0      0.00%     44.44% |           0      0.00%     44.44% |           1      2.22%     46.67% |           1      2.22%     48.89% |           0      0.00%     48.89% |           4      8.89%     57.78% |           0      0.00%     57.78% |           3      6.67%     64.44% |           0      0.00%     64.44% |           0      0.00%     64.44% |           0      0.00%     64.44% |           9     20.00%     84.44% |           0      0.00%     84.44% |           0      0.00%     84.44% |           0      0.00%     84.44% |           0      0.00%     84.44% |           0      0.00%     84.44% |           1      2.22%     86.67% |           2      4.44%     91.11% |           1      2.22%     93.33% |           1      2.22%     95.56% |           0      0.00%     95.56% |           1      2.22%     97.78% |           1      2.22%    100.00% |           0      0.00%    100.00%
system.ruby.L2Cache_Controller.SS_MB.Exclusive_Unblock::total           45                      
system.ruby.L2Cache_Controller.MT_MB.L1_PUTX |           2    100.00%    100.00% |           0      0.00%    100.00% |           0      0.00%    100.00% |           0      0.00%    100.00% |           0      0.00%    100.00% |           0      0.00%    100.00% |           0      0.00%    100.00% |           0      0.00%    100.00% |           0      0.00%    100.00% |           0      0.00%    100.00% |           0      0.00%    100.00% |           0      0.00%    100.00% |           0      0.00%    100.00% |           0      0.00%    100.00% |           0      0.00%    100.00% |           0      0.00%    100.00% |           0      0.00%    100.00% |           0      0.00%    100.00% |           0      0.00%    100.00% |           0      0.00%    100.00% |           0      0.00%    100.00% |           0      0.00%    100.00% |           0      0.00%    100.00% |           0      0.00%    100.00% |           0      0.00%    100.00% |           0      0.00%    100.00% |           0      0.00%    100.00% |           0      0.00%    100.00% |           0      0.00%    100.00% |           0      0.00%    100.00% |           0      0.00%    100.00% |           0      0.00%    100.00%
system.ruby.L2Cache_Controller.MT_MB.L1_PUTX::total            2                      
system.ruby.L2Cache_Controller.MT_MB.Exclusive_Unblock |      173174      8.48%      8.48% |       64261      3.15%     11.63% |       58769      2.88%     14.51% |       58460      2.86%     17.37% |       57800      2.83%     20.20% |       56502      2.77%     22.97% |       55007      2.69%     25.67% |       55299      2.71%     28.38% |       59205      2.90%     31.28% |       57719      2.83%     34.10% |       60648      2.97%     37.07% |       60210      2.95%     40.02% |       56860      2.79%     42.81% |       56795      2.78%     45.59% |       56448      2.77%     48.36% |       56867      2.79%     51.14% |       59147      2.90%     54.04% |       58518      2.87%     56.91% |       59886      2.93%     59.84% |       60878      2.98%     62.82% |       60910      2.98%     65.81% |       63098      3.09%     68.90% |       64329      3.15%     72.05% |       60550      2.97%     75.01% |       61117      2.99%     78.01% |       62471      3.06%     81.07% |       60800      2.98%     84.05% |       61418      3.01%     87.05% |       64091      3.14%     90.19% |       61916      3.03%     93.23% |       70027      3.43%     96.66% |       68234      3.34%    100.00%
system.ruby.L2Cache_Controller.MT_MB.Exclusive_Unblock::total      2041414                      
system.ruby.L2Cache_Controller.MT_IIB.WB_Data |           0      0.00%      0.00% |           0      0.00%      0.00% |           0      0.00%      0.00% |           0      0.00%      0.00% |           0      0.00%      0.00% |           1     50.00%     50.00% |           0      0.00%     50.00% |           0      0.00%     50.00% |           0      0.00%     50.00% |           0      0.00%     50.00% |           0      0.00%     50.00% |           0      0.00%     50.00% |           0      0.00%     50.00% |           0      0.00%     50.00% |           0      0.00%     50.00% |           0      0.00%     50.00% |           0      0.00%     50.00% |           0      0.00%     50.00% |           0      0.00%     50.00% |           0      0.00%     50.00% |           0      0.00%     50.00% |           0      0.00%     50.00% |           0      0.00%     50.00% |           0      0.00%     50.00% |           0      0.00%     50.00% |           0      0.00%     50.00% |           0      0.00%     50.00% |           0      0.00%     50.00% |           1     50.00%    100.00% |           0      0.00%    100.00% |           0      0.00%    100.00% |           0      0.00%    100.00%
system.ruby.L2Cache_Controller.MT_IIB.WB_Data::total            2                      
system.ruby.L2Cache_Controller.MT_IIB.WB_Data_clean |          24    100.00%    100.00% |           0      0.00%    100.00% |           0      0.00%    100.00% |           0      0.00%    100.00% |           0      0.00%    100.00% |           0      0.00%    100.00% |           0      0.00%    100.00% |           0      0.00%    100.00% |           0      0.00%    100.00% |           0      0.00%    100.00% |           0      0.00%    100.00% |           0      0.00%    100.00% |           0      0.00%    100.00% |           0      0.00%    100.00% |           0      0.00%    100.00% |           0      0.00%    100.00% |           0      0.00%    100.00% |           0      0.00%    100.00% |           0      0.00%    100.00% |           0      0.00%    100.00% |           0      0.00%    100.00% |           0      0.00%    100.00% |           0      0.00%    100.00% |           0      0.00%    100.00% |           0      0.00%    100.00% |           0      0.00%    100.00% |           0      0.00%    100.00% |           0      0.00%    100.00% |           0      0.00%    100.00% |           0      0.00%    100.00% |           0      0.00%    100.00% |           0      0.00%    100.00%
system.ruby.L2Cache_Controller.MT_IIB.WB_Data_clean::total           24                      
system.ruby.L2Cache_Controller.MT_SB.Unblock |          24     92.31%     92.31% |           0      0.00%     92.31% |           0      0.00%     92.31% |           0      0.00%     92.31% |           0      0.00%     92.31% |           1      3.85%     96.15% |           0      0.00%     96.15% |           0      0.00%     96.15% |           0      0.00%     96.15% |           0      0.00%     96.15% |           0      0.00%     96.15% |           0      0.00%     96.15% |           0      0.00%     96.15% |           0      0.00%     96.15% |           0      0.00%     96.15% |           0      0.00%     96.15% |           0      0.00%     96.15% |           0      0.00%     96.15% |           0      0.00%     96.15% |           0      0.00%     96.15% |           0      0.00%     96.15% |           0      0.00%     96.15% |           0      0.00%     96.15% |           0      0.00%     96.15% |           0      0.00%     96.15% |           0      0.00%     96.15% |           0      0.00%     96.15% |           0      0.00%     96.15% |           1      3.85%    100.00% |           0      0.00%    100.00% |           0      0.00%    100.00% |           0      0.00%    100.00%
system.ruby.L2Cache_Controller.MT_SB.Unblock::total           26                      
system.ruby.SimicsNetworkPortInterface_Controller.MessageSend |      277391     23.61%     23.61% |      587491     50.00%     73.61% |       38185      3.25%     76.86% |       40411      3.44%     80.30% |       37727      3.21%     83.51% |       39762      3.38%     86.89% |       37733      3.21%     90.10% |       39036      3.32%     93.43% |       38395      3.27%     96.69% |       38851      3.31%    100.00% |           0      0.00%    100.00% |           0      0.00%    100.00% |           0      0.00%    100.00% |           0      0.00%    100.00% |           0      0.00%    100.00% |           0      0.00%    100.00% |           0      0.00%    100.00% |           0      0.00%    100.00% |           0      0.00%    100.00% |           0      0.00%    100.00% |           0      0.00%    100.00% |           0      0.00%    100.00% |           0      0.00%    100.00% |           0      0.00%    100.00% |           0      0.00%    100.00% |           0      0.00%    100.00% |           0      0.00%    100.00% |           0      0.00%    100.00% |           0      0.00%    100.00% |           0      0.00%    100.00% |           0      0.00%    100.00% |           0      0.00%    100.00%
system.ruby.SimicsNetworkPortInterface_Controller.MessageSend::total      1174982                      
system.ruby.SimicsNetworkPortInterface_Controller.MessageRecv |      277391     23.61%     23.61% |      587491     50.00%     73.61% |       38185      3.25%     76.86% |       40411      3.44%     80.30% |       37727      3.21%     83.51% |       39762      3.38%     86.89% |       37733      3.21%     90.10% |       39036      3.32%     93.43% |       38395      3.27%     96.69% |       38851      3.31%    100.00% |           0      0.00%    100.00% |           0      0.00%    100.00% |           0      0.00%    100.00% |           0      0.00%    100.00% |           0      0.00%    100.00% |           0      0.00%    100.00% |           0      0.00%    100.00% |           0      0.00%    100.00% |           0      0.00%    100.00% |           0      0.00%    100.00% |           0      0.00%    100.00% |           0      0.00%    100.00% |           0      0.00%    100.00% |           0      0.00%    100.00% |           0      0.00%    100.00% |           0      0.00%    100.00% |           0      0.00%    100.00% |           0      0.00%    100.00% |           0      0.00%    100.00% |           0      0.00%    100.00% |           0      0.00%    100.00% |           0      0.00%    100.00%
system.ruby.SimicsNetworkPortInterface_Controller.MessageRecv::total      1174982                      
system.ruby.SimicsNetworkPortInterface_Controller.A.MessageSend |      277391     23.61%     23.61% |      587491     50.00%     73.61% |       38185      3.25%     76.86% |       40411      3.44%     80.30% |       37727      3.21%     83.51% |       39762      3.38%     86.89% |       37733      3.21%     90.10% |       39036      3.32%     93.43% |       38395      3.27%     96.69% |       38851      3.31%    100.00% |           0      0.00%    100.00% |           0      0.00%    100.00% |           0      0.00%    100.00% |           0      0.00%    100.00% |           0      0.00%    100.00% |           0      0.00%    100.00% |           0      0.00%    100.00% |           0      0.00%    100.00% |           0      0.00%    100.00% |           0      0.00%    100.00% |           0      0.00%    100.00% |           0      0.00%    100.00% |           0      0.00%    100.00% |           0      0.00%    100.00% |           0      0.00%    100.00% |           0      0.00%    100.00% |           0      0.00%    100.00% |           0      0.00%    100.00% |           0      0.00%    100.00% |           0      0.00%    100.00% |           0      0.00%    100.00% |           0      0.00%    100.00%
system.ruby.SimicsNetworkPortInterface_Controller.A.MessageSend::total      1174982                      
system.ruby.SimicsNetworkPortInterface_Controller.A.MessageRecv |      277391     23.61%     23.61% |      587491     50.00%     73.61% |       38185      3.25%     76.86% |       40411      3.44%     80.30% |       37727      3.21%     83.51% |       39762      3.38%     86.89% |       37733      3.21%     90.10% |       39036      3.32%     93.43% |       38395      3.27%     96.69% |       38851      3.31%    100.00% |           0      0.00%    100.00% |           0      0.00%    100.00% |           0      0.00%    100.00% |           0      0.00%    100.00% |           0      0.00%    100.00% |           0      0.00%    100.00% |           0      0.00%    100.00% |           0      0.00%    100.00% |           0      0.00%    100.00% |           0      0.00%    100.00% |           0      0.00%    100.00% |           0      0.00%    100.00% |           0      0.00%    100.00% |           0      0.00%    100.00% |           0      0.00%    100.00% |           0      0.00%    100.00% |           0      0.00%    100.00% |           0      0.00%    100.00% |           0      0.00%    100.00% |           0      0.00%    100.00% |           0      0.00%    100.00% |           0      0.00%    100.00%
system.ruby.SimicsNetworkPortInterface_Controller.A.MessageRecv::total      1174982                      
system.switch_cpus.kern.inst.arm                    0                       # number of arm instructions executed
system.switch_cpus.kern.inst.quiesce                0                       # number of quiesce instructions executed

---------- End Simulation Statistics   ----------
