
---------- Begin Simulation Statistics ----------
sim_seconds                                  0.153814                       # Number of seconds simulated
sim_ticks                                153814409000                       # Number of ticks simulated
final_tick                               5329982487500                       # Number of ticks from beginning of simulation (restored from checkpoints and never reset)
sim_freq                                 1000000000000                       # Frequency of simulated ticks
host_inst_rate                                  18936                       # Simulator instruction rate (inst/s)
host_op_rate                                    36057                       # Simulator op (including micro ops) rate (op/s)
host_tick_rate                               45113049                       # Simulator tick rate (ticks/s)
host_mem_usage                                4007392                       # Number of bytes of host memory used
host_seconds                                  3409.53                       # Real time elapsed on the host
sim_insts                                    64564412                       # Number of instructions simulated
sim_ops                                     122936683                       # Number of ops (including micro ops) simulated
system.voltage_domain.voltage                       1                       # Voltage in Volts
system.clk_domain.clock                           500                       # Clock period in ticks
system.mem_ctrls0.bytes_read::ruby.dir_cntrl0     25269632                       # Number of bytes read from this memory
system.mem_ctrls0.bytes_read::total          25269632                       # Number of bytes read from this memory
system.mem_ctrls0.bytes_written::ruby.dir_cntrl0     21421376                       # Number of bytes written to this memory
system.mem_ctrls0.bytes_written::total       21421376                       # Number of bytes written to this memory
system.mem_ctrls0.num_reads::ruby.dir_cntrl0       394838                       # Number of read requests responded to by this memory
system.mem_ctrls0.num_reads::total             394838                       # Number of read requests responded to by this memory
system.mem_ctrls0.num_writes::ruby.dir_cntrl0       334709                       # Number of write requests responded to by this memory
system.mem_ctrls0.num_writes::total            334709                       # Number of write requests responded to by this memory
system.mem_ctrls0.bw_read::ruby.dir_cntrl0    164286507                       # Total read bandwidth from this memory (bytes/s)
system.mem_ctrls0.bw_read::total            164286507                       # Total read bandwidth from this memory (bytes/s)
system.mem_ctrls0.bw_write::ruby.dir_cntrl0    139267681                       # Write bandwidth from this memory (bytes/s)
system.mem_ctrls0.bw_write::total           139267681                       # Write bandwidth from this memory (bytes/s)
system.mem_ctrls0.bw_total::ruby.dir_cntrl0    303554188                       # Total bandwidth to/from this memory (bytes/s)
system.mem_ctrls0.bw_total::total           303554188                       # Total bandwidth to/from this memory (bytes/s)
system.mem_ctrls0.readReqs                     394839                       # Number of read requests accepted
system.mem_ctrls0.writeReqs                    334709                       # Number of write requests accepted
system.mem_ctrls0.readBursts                   394839                       # Number of DRAM read bursts, including those serviced by the write queue
system.mem_ctrls0.writeBursts                  334709                       # Number of DRAM write bursts, including those merged in the write queue
system.mem_ctrls0.bytesReadDRAM              25268480                       # Total number of bytes read from DRAM
system.mem_ctrls0.bytesReadWrQ                   1216                       # Total number of bytes read from write queue
system.mem_ctrls0.bytesWritten               21421184                       # Total number of bytes written to DRAM
system.mem_ctrls0.bytesReadSys               25269696                       # Total read bytes from the system interface side
system.mem_ctrls0.bytesWrittenSys            21421376                       # Total written bytes from the system interface side
system.mem_ctrls0.servicedByWrQ                    19                       # Number of DRAM read bursts serviced by the write queue
system.mem_ctrls0.mergedWrBursts                    0                       # Number of DRAM write bursts merged with an existing one
system.mem_ctrls0.neitherReadNorWriteReqs            0                       # Number of requests that are neither read nor write
system.mem_ctrls0.perBankRdBursts::0            24367                       # Per bank write bursts
system.mem_ctrls0.perBankRdBursts::1            25077                       # Per bank write bursts
system.mem_ctrls0.perBankRdBursts::2            24639                       # Per bank write bursts
system.mem_ctrls0.perBankRdBursts::3            24954                       # Per bank write bursts
system.mem_ctrls0.perBankRdBursts::4            24586                       # Per bank write bursts
system.mem_ctrls0.perBankRdBursts::5            24927                       # Per bank write bursts
system.mem_ctrls0.perBankRdBursts::6            24974                       # Per bank write bursts
system.mem_ctrls0.perBankRdBursts::7            24751                       # Per bank write bursts
system.mem_ctrls0.perBankRdBursts::8            24658                       # Per bank write bursts
system.mem_ctrls0.perBankRdBursts::9            24787                       # Per bank write bursts
system.mem_ctrls0.perBankRdBursts::10           24575                       # Per bank write bursts
system.mem_ctrls0.perBankRdBursts::11           25069                       # Per bank write bursts
system.mem_ctrls0.perBankRdBursts::12           24326                       # Per bank write bursts
system.mem_ctrls0.perBankRdBursts::13           24246                       # Per bank write bursts
system.mem_ctrls0.perBankRdBursts::14           24411                       # Per bank write bursts
system.mem_ctrls0.perBankRdBursts::15           24473                       # Per bank write bursts
system.mem_ctrls0.perBankWrBursts::0            20935                       # Per bank write bursts
system.mem_ctrls0.perBankWrBursts::1            20824                       # Per bank write bursts
system.mem_ctrls0.perBankWrBursts::2            20850                       # Per bank write bursts
system.mem_ctrls0.perBankWrBursts::3            21143                       # Per bank write bursts
system.mem_ctrls0.perBankWrBursts::4            20772                       # Per bank write bursts
system.mem_ctrls0.perBankWrBursts::5            21050                       # Per bank write bursts
system.mem_ctrls0.perBankWrBursts::6            21070                       # Per bank write bursts
system.mem_ctrls0.perBankWrBursts::7            21018                       # Per bank write bursts
system.mem_ctrls0.perBankWrBursts::8            21141                       # Per bank write bursts
system.mem_ctrls0.perBankWrBursts::9            20936                       # Per bank write bursts
system.mem_ctrls0.perBankWrBursts::10           20816                       # Per bank write bursts
system.mem_ctrls0.perBankWrBursts::11           20866                       # Per bank write bursts
system.mem_ctrls0.perBankWrBursts::12           20633                       # Per bank write bursts
system.mem_ctrls0.perBankWrBursts::13           20917                       # Per bank write bursts
system.mem_ctrls0.perBankWrBursts::14           20914                       # Per bank write bursts
system.mem_ctrls0.perBankWrBursts::15           20821                       # Per bank write bursts
system.mem_ctrls0.numRdRetry                   130939                       # Number of times read queue was full causing retry
system.mem_ctrls0.numWrRetry                    15532                       # Number of times write queue was full causing retry
system.mem_ctrls0.totGap                 153814145500                       # Total gap between requests
system.mem_ctrls0.readPktSize::0                    0                       # Read request sizes (log2)
system.mem_ctrls0.readPktSize::1                    0                       # Read request sizes (log2)
system.mem_ctrls0.readPktSize::2                    0                       # Read request sizes (log2)
system.mem_ctrls0.readPktSize::3                    0                       # Read request sizes (log2)
system.mem_ctrls0.readPktSize::4                    0                       # Read request sizes (log2)
system.mem_ctrls0.readPktSize::5                    0                       # Read request sizes (log2)
system.mem_ctrls0.readPktSize::6               394839                       # Read request sizes (log2)
system.mem_ctrls0.writePktSize::0                   0                       # Write request sizes (log2)
system.mem_ctrls0.writePktSize::1                   0                       # Write request sizes (log2)
system.mem_ctrls0.writePktSize::2                   0                       # Write request sizes (log2)
system.mem_ctrls0.writePktSize::3                   0                       # Write request sizes (log2)
system.mem_ctrls0.writePktSize::4                   0                       # Write request sizes (log2)
system.mem_ctrls0.writePktSize::5                   0                       # Write request sizes (log2)
system.mem_ctrls0.writePktSize::6              334709                       # Write request sizes (log2)
system.mem_ctrls0.rdQLenPdf::0                 204642                       # What read queue length does an incoming req see
system.mem_ctrls0.rdQLenPdf::1                   5813                       # What read queue length does an incoming req see
system.mem_ctrls0.rdQLenPdf::2                   3212                       # What read queue length does an incoming req see
system.mem_ctrls0.rdQLenPdf::3                    665                       # What read queue length does an incoming req see
system.mem_ctrls0.rdQLenPdf::4                    780                       # What read queue length does an incoming req see
system.mem_ctrls0.rdQLenPdf::5                    839                       # What read queue length does an incoming req see
system.mem_ctrls0.rdQLenPdf::6                    947                       # What read queue length does an incoming req see
system.mem_ctrls0.rdQLenPdf::7                    980                       # What read queue length does an incoming req see
system.mem_ctrls0.rdQLenPdf::8                   1080                       # What read queue length does an incoming req see
system.mem_ctrls0.rdQLenPdf::9                   1114                       # What read queue length does an incoming req see
system.mem_ctrls0.rdQLenPdf::10                  1128                       # What read queue length does an incoming req see
system.mem_ctrls0.rdQLenPdf::11                  1120                       # What read queue length does an incoming req see
system.mem_ctrls0.rdQLenPdf::12                  1176                       # What read queue length does an incoming req see
system.mem_ctrls0.rdQLenPdf::13                  1263                       # What read queue length does an incoming req see
system.mem_ctrls0.rdQLenPdf::14                  1296                       # What read queue length does an incoming req see
system.mem_ctrls0.rdQLenPdf::15                  1343                       # What read queue length does an incoming req see
system.mem_ctrls0.rdQLenPdf::16                  1371                       # What read queue length does an incoming req see
system.mem_ctrls0.rdQLenPdf::17                  1469                       # What read queue length does an incoming req see
system.mem_ctrls0.rdQLenPdf::18                  1479                       # What read queue length does an incoming req see
system.mem_ctrls0.rdQLenPdf::19                  1500                       # What read queue length does an incoming req see
system.mem_ctrls0.rdQLenPdf::20                  1555                       # What read queue length does an incoming req see
system.mem_ctrls0.rdQLenPdf::21                  1632                       # What read queue length does an incoming req see
system.mem_ctrls0.rdQLenPdf::22                  1692                       # What read queue length does an incoming req see
system.mem_ctrls0.rdQLenPdf::23                  1831                       # What read queue length does an incoming req see
system.mem_ctrls0.rdQLenPdf::24                  1822                       # What read queue length does an incoming req see
system.mem_ctrls0.rdQLenPdf::25                  2087                       # What read queue length does an incoming req see
system.mem_ctrls0.rdQLenPdf::26                  2238                       # What read queue length does an incoming req see
system.mem_ctrls0.rdQLenPdf::27                  2423                       # What read queue length does an incoming req see
system.mem_ctrls0.rdQLenPdf::28                  2735                       # What read queue length does an incoming req see
system.mem_ctrls0.rdQLenPdf::29                  2974                       # What read queue length does an incoming req see
system.mem_ctrls0.rdQLenPdf::30                  3683                       # What read queue length does an incoming req see
system.mem_ctrls0.rdQLenPdf::31                136931                       # What read queue length does an incoming req see
system.mem_ctrls0.wrQLenPdf::0                  48512                       # What write queue length does an incoming req see
system.mem_ctrls0.wrQLenPdf::1                  51153                       # What write queue length does an incoming req see
system.mem_ctrls0.wrQLenPdf::2                  52718                       # What write queue length does an incoming req see
system.mem_ctrls0.wrQLenPdf::3                  53201                       # What write queue length does an incoming req see
system.mem_ctrls0.wrQLenPdf::4                  54392                       # What write queue length does an incoming req see
system.mem_ctrls0.wrQLenPdf::5                  16759                       # What write queue length does an incoming req see
system.mem_ctrls0.wrQLenPdf::6                  21917                       # What write queue length does an incoming req see
system.mem_ctrls0.wrQLenPdf::7                  36057                       # What write queue length does an incoming req see
system.mem_ctrls0.bytesPerActivate::samples       215278                       # Bytes accessed per row activation
system.mem_ctrls0.bytesPerActivate::mean   216.876039                       # Bytes accessed per row activation
system.mem_ctrls0.bytesPerActivate::gmean   164.776358                       # Bytes accessed per row activation
system.mem_ctrls0.bytesPerActivate::stdev   166.510396                       # Bytes accessed per row activation
system.mem_ctrls0.bytesPerActivate::0-127        68258     31.71%     31.71% # Bytes accessed per row activation
system.mem_ctrls0.bytesPerActivate::128-255        54276     25.21%     56.92% # Bytes accessed per row activation
system.mem_ctrls0.bytesPerActivate::256-383        69830     32.44%     89.36% # Bytes accessed per row activation
system.mem_ctrls0.bytesPerActivate::384-511        10140      4.71%     94.07% # Bytes accessed per row activation
system.mem_ctrls0.bytesPerActivate::512-639         5858      2.72%     96.79% # Bytes accessed per row activation
system.mem_ctrls0.bytesPerActivate::640-767         2914      1.35%     98.14% # Bytes accessed per row activation
system.mem_ctrls0.bytesPerActivate::768-895         1521      0.71%     98.85% # Bytes accessed per row activation
system.mem_ctrls0.bytesPerActivate::896-1023          962      0.45%     99.29% # Bytes accessed per row activation
system.mem_ctrls0.bytesPerActivate::1024-1151         1519      0.71%    100.00% # Bytes accessed per row activation
system.mem_ctrls0.bytesPerActivate::total       215278                       # Bytes accessed per row activation
system.mem_ctrls0.rdPerTurnAround::samples        49994                       # Reads before turning the bus around for writes
system.mem_ctrls0.rdPerTurnAround::mean      7.897148                       # Reads before turning the bus around for writes
system.mem_ctrls0.rdPerTurnAround::stdev    18.967783                       # Reads before turning the bus around for writes
system.mem_ctrls0.rdPerTurnAround::0-127        49986     99.98%     99.98% # Reads before turning the bus around for writes
system.mem_ctrls0.rdPerTurnAround::128-255            7      0.01%    100.00% # Reads before turning the bus around for writes
system.mem_ctrls0.rdPerTurnAround::3968-4095            1      0.00%    100.00% # Reads before turning the bus around for writes
system.mem_ctrls0.rdPerTurnAround::total        49994                       # Reads before turning the bus around for writes
system.mem_ctrls0.wrPerTurnAround::samples        49994                       # Writes before turning the bus around for reads
system.mem_ctrls0.wrPerTurnAround::mean      6.694923                       # Writes before turning the bus around for reads
system.mem_ctrls0.wrPerTurnAround::gmean     6.086309                       # Writes before turning the bus around for reads
system.mem_ctrls0.wrPerTurnAround::stdev     3.520675                       # Writes before turning the bus around for reads
system.mem_ctrls0.wrPerTurnAround::4-7          40276     80.56%     80.56% # Writes before turning the bus around for reads
system.mem_ctrls0.wrPerTurnAround::8-11          1953      3.91%     84.47% # Writes before turning the bus around for reads
system.mem_ctrls0.wrPerTurnAround::12-15         5065     10.13%     94.60% # Writes before turning the bus around for reads
system.mem_ctrls0.wrPerTurnAround::16-19         2700      5.40%    100.00% # Writes before turning the bus around for reads
system.mem_ctrls0.wrPerTurnAround::total        49994                       # Writes before turning the bus around for reads
system.mem_ctrls0.totQLat                 65674095944                       # Total ticks spent queuing
system.mem_ctrls0.totMemAccLat            73076970944                       # Total ticks spent from burst creation until serviced by the DRAM
system.mem_ctrls0.totBusLat                1974100000                       # Total ticks spent in databus transfers
system.mem_ctrls0.avgQLat                   166339.33                       # Average queueing delay per DRAM burst
system.mem_ctrls0.avgBusLat                   5000.00                       # Average bus latency per DRAM burst
system.mem_ctrls0.avgMemAccLat              185089.33                       # Average memory access latency per DRAM burst
system.mem_ctrls0.avgRdBW                      164.28                       # Average DRAM read bandwidth in MiByte/s
system.mem_ctrls0.avgWrBW                      139.27                       # Average achieved write bandwidth in MiByte/s
system.mem_ctrls0.avgRdBWSys                   164.29                       # Average system read bandwidth in MiByte/s
system.mem_ctrls0.avgWrBWSys                   139.27                       # Average system write bandwidth in MiByte/s
system.mem_ctrls0.peakBW                     12800.00                       # Theoretical peak bandwidth in MiByte/s
system.mem_ctrls0.busUtil                        2.37                       # Data bus utilization in percentage
system.mem_ctrls0.busUtilRead                    1.28                       # Data bus utilization in percentage for reads
system.mem_ctrls0.busUtilWrite                   1.09                       # Data bus utilization in percentage for writes
system.mem_ctrls0.avgRdQLen                      1.44                       # Average read queue length when enqueuing
system.mem_ctrls0.avgWrQLen                      2.99                       # Average write queue length when enqueuing
system.mem_ctrls0.readRowHits                  295034                       # Number of row buffer hits during reads
system.mem_ctrls0.writeRowHits                 219202                       # Number of row buffer hits during writes
system.mem_ctrls0.readRowHitRate                74.73                       # Row buffer hit rate for reads
system.mem_ctrls0.writeRowHitRate               65.49                       # Row buffer hit rate for writes
system.mem_ctrls0.avgGap                    210834.85                       # Average gap between requests
system.mem_ctrls0.pageHitRate                   70.49                       # Row buffer hit rate, read and write combined
system.mem_ctrls0.memoryStateTime::IDLE   26565825750                       # Time in different power states
system.mem_ctrls0.memoryStateTime::REF     5136040000                       # Time in different power states
system.mem_ctrls0.memoryStateTime::PRE_PDN            0                       # Time in different power states
system.mem_ctrls0.memoryStateTime::ACT   122107992500                       # Time in different power states
system.mem_ctrls0.memoryStateTime::ACT_PDN            0                       # Time in different power states
system.mem_ctrls0.actEnergy::0              817319160                       # Energy for activate commands per rank (pJ)
system.mem_ctrls0.actEnergy::1              810061560                       # Energy for activate commands per rank (pJ)
system.mem_ctrls0.preEnergy::0              445957875                       # Energy for precharge commands per rank (pJ)
system.mem_ctrls0.preEnergy::1              441997875                       # Energy for precharge commands per rank (pJ)
system.mem_ctrls0.readEnergy::0            1546412400                       # Energy for read commands per rank (pJ)
system.mem_ctrls0.readEnergy::1            1532965200                       # Energy for read commands per rank (pJ)
system.mem_ctrls0.writeEnergy::0           1086397920                       # Energy for write commands per rank (pJ)
system.mem_ctrls0.writeEnergy::1           1082380320                       # Energy for write commands per rank (pJ)
system.mem_ctrls0.refreshEnergy::0        10046094240                       # Energy for refresh commands per rank (pJ)
system.mem_ctrls0.refreshEnergy::1        10046094240                       # Energy for refresh commands per rank (pJ)
system.mem_ctrls0.actBackEnergy::0        61112375010                       # Energy for active background per rank (pJ)
system.mem_ctrls0.actBackEnergy::1        60855408180                       # Energy for active background per rank (pJ)
system.mem_ctrls0.preBackEnergy::0        38678560500                       # Energy for precharge background per rank (pJ)
system.mem_ctrls0.preBackEnergy::1        38903970000                       # Energy for precharge background per rank (pJ)
system.mem_ctrls0.totalEnergy::0         113733117105                       # Total energy per rank (pJ)
system.mem_ctrls0.totalEnergy::1         113672877375                       # Total energy per rank (pJ)
system.mem_ctrls0.averagePower::0          739.439775                       # Core power per rank (mW)
system.mem_ctrls0.averagePower::1          739.048124                       # Core power per rank (mW)
system.mem_ctrls1.bytes_read::ruby.dir_cntrl1     24509312                       # Number of bytes read from this memory
system.mem_ctrls1.bytes_read::total          24509312                       # Number of bytes read from this memory
system.mem_ctrls1.bytes_written::ruby.dir_cntrl1     20683584                       # Number of bytes written to this memory
system.mem_ctrls1.bytes_written::total       20683584                       # Number of bytes written to this memory
system.mem_ctrls1.num_reads::ruby.dir_cntrl1       382958                       # Number of read requests responded to by this memory
system.mem_ctrls1.num_reads::total             382958                       # Number of read requests responded to by this memory
system.mem_ctrls1.num_writes::ruby.dir_cntrl1       323181                       # Number of write requests responded to by this memory
system.mem_ctrls1.num_writes::total            323181                       # Number of write requests responded to by this memory
system.mem_ctrls1.bw_read::ruby.dir_cntrl1    159343407                       # Total read bandwidth from this memory (bytes/s)
system.mem_ctrls1.bw_read::total            159343407                       # Total read bandwidth from this memory (bytes/s)
system.mem_ctrls1.bw_write::ruby.dir_cntrl1    134471043                       # Write bandwidth from this memory (bytes/s)
system.mem_ctrls1.bw_write::total           134471043                       # Write bandwidth from this memory (bytes/s)
system.mem_ctrls1.bw_total::ruby.dir_cntrl1    293814450                       # Total bandwidth to/from this memory (bytes/s)
system.mem_ctrls1.bw_total::total           293814450                       # Total bandwidth to/from this memory (bytes/s)
system.mem_ctrls1.readReqs                     382958                       # Number of read requests accepted
system.mem_ctrls1.writeReqs                    323181                       # Number of write requests accepted
system.mem_ctrls1.readBursts                   382958                       # Number of DRAM read bursts, including those serviced by the write queue
system.mem_ctrls1.writeBursts                  323181                       # Number of DRAM write bursts, including those merged in the write queue
system.mem_ctrls1.bytesReadDRAM              24507904                       # Total number of bytes read from DRAM
system.mem_ctrls1.bytesReadWrQ                   1408                       # Total number of bytes read from write queue
system.mem_ctrls1.bytesWritten               20683328                       # Total number of bytes written to DRAM
system.mem_ctrls1.bytesReadSys               24509312                       # Total read bytes from the system interface side
system.mem_ctrls1.bytesWrittenSys            20683584                       # Total written bytes from the system interface side
system.mem_ctrls1.servicedByWrQ                    22                       # Number of DRAM read bursts serviced by the write queue
system.mem_ctrls1.mergedWrBursts                    0                       # Number of DRAM write bursts merged with an existing one
system.mem_ctrls1.neitherReadNorWriteReqs            0                       # Number of requests that are neither read nor write
system.mem_ctrls1.perBankRdBursts::0            23652                       # Per bank write bursts
system.mem_ctrls1.perBankRdBursts::1            24327                       # Per bank write bursts
system.mem_ctrls1.perBankRdBursts::2            23892                       # Per bank write bursts
system.mem_ctrls1.perBankRdBursts::3            24204                       # Per bank write bursts
system.mem_ctrls1.perBankRdBursts::4            23868                       # Per bank write bursts
system.mem_ctrls1.perBankRdBursts::5            24185                       # Per bank write bursts
system.mem_ctrls1.perBankRdBursts::6            24229                       # Per bank write bursts
system.mem_ctrls1.perBankRdBursts::7            24041                       # Per bank write bursts
system.mem_ctrls1.perBankRdBursts::8            23915                       # Per bank write bursts
system.mem_ctrls1.perBankRdBursts::9            24037                       # Per bank write bursts
system.mem_ctrls1.perBankRdBursts::10           23807                       # Per bank write bursts
system.mem_ctrls1.perBankRdBursts::11           24343                       # Per bank write bursts
system.mem_ctrls1.perBankRdBursts::12           23594                       # Per bank write bursts
system.mem_ctrls1.perBankRdBursts::13           23492                       # Per bank write bursts
system.mem_ctrls1.perBankRdBursts::14           23598                       # Per bank write bursts
system.mem_ctrls1.perBankRdBursts::15           23752                       # Per bank write bursts
system.mem_ctrls1.perBankWrBursts::0            20211                       # Per bank write bursts
system.mem_ctrls1.perBankWrBursts::1            20116                       # Per bank write bursts
system.mem_ctrls1.perBankWrBursts::2            20142                       # Per bank write bursts
system.mem_ctrls1.perBankWrBursts::3            20433                       # Per bank write bursts
system.mem_ctrls1.perBankWrBursts::4            20058                       # Per bank write bursts
system.mem_ctrls1.perBankWrBursts::5            20336                       # Per bank write bursts
system.mem_ctrls1.perBankWrBursts::6            20338                       # Per bank write bursts
system.mem_ctrls1.perBankWrBursts::7            20287                       # Per bank write bursts
system.mem_ctrls1.perBankWrBursts::8            20414                       # Per bank write bursts
system.mem_ctrls1.perBankWrBursts::9            20215                       # Per bank write bursts
system.mem_ctrls1.perBankWrBursts::10           20102                       # Per bank write bursts
system.mem_ctrls1.perBankWrBursts::11           20154                       # Per bank write bursts
system.mem_ctrls1.perBankWrBursts::12           19918                       # Per bank write bursts
system.mem_ctrls1.perBankWrBursts::13           20200                       # Per bank write bursts
system.mem_ctrls1.perBankWrBursts::14           20145                       # Per bank write bursts
system.mem_ctrls1.perBankWrBursts::15           20108                       # Per bank write bursts
system.mem_ctrls1.numRdRetry                    90444                       # Number of times read queue was full causing retry
system.mem_ctrls1.numWrRetry                    12907                       # Number of times write queue was full causing retry
system.mem_ctrls1.totGap                 153813654500                       # Total gap between requests
system.mem_ctrls1.readPktSize::0                    0                       # Read request sizes (log2)
system.mem_ctrls1.readPktSize::1                    0                       # Read request sizes (log2)
system.mem_ctrls1.readPktSize::2                    0                       # Read request sizes (log2)
system.mem_ctrls1.readPktSize::3                    0                       # Read request sizes (log2)
system.mem_ctrls1.readPktSize::4                    0                       # Read request sizes (log2)
system.mem_ctrls1.readPktSize::5                    0                       # Read request sizes (log2)
system.mem_ctrls1.readPktSize::6               382958                       # Read request sizes (log2)
system.mem_ctrls1.writePktSize::0                   0                       # Write request sizes (log2)
system.mem_ctrls1.writePktSize::1                   0                       # Write request sizes (log2)
system.mem_ctrls1.writePktSize::2                   0                       # Write request sizes (log2)
system.mem_ctrls1.writePktSize::3                   0                       # Write request sizes (log2)
system.mem_ctrls1.writePktSize::4                   0                       # Write request sizes (log2)
system.mem_ctrls1.writePktSize::5                   0                       # Write request sizes (log2)
system.mem_ctrls1.writePktSize::6              323181                       # Write request sizes (log2)
system.mem_ctrls1.rdQLenPdf::0                 200325                       # What read queue length does an incoming req see
system.mem_ctrls1.rdQLenPdf::1                   1487                       # What read queue length does an incoming req see
system.mem_ctrls1.rdQLenPdf::2                   1088                       # What read queue length does an incoming req see
system.mem_ctrls1.rdQLenPdf::3                   1275                       # What read queue length does an incoming req see
system.mem_ctrls1.rdQLenPdf::4                   1535                       # What read queue length does an incoming req see
system.mem_ctrls1.rdQLenPdf::5                   1694                       # What read queue length does an incoming req see
system.mem_ctrls1.rdQLenPdf::6                   1928                       # What read queue length does an incoming req see
system.mem_ctrls1.rdQLenPdf::7                   2051                       # What read queue length does an incoming req see
system.mem_ctrls1.rdQLenPdf::8                   2092                       # What read queue length does an incoming req see
system.mem_ctrls1.rdQLenPdf::9                   2266                       # What read queue length does an incoming req see
system.mem_ctrls1.rdQLenPdf::10                  2429                       # What read queue length does an incoming req see
system.mem_ctrls1.rdQLenPdf::11                  2447                       # What read queue length does an incoming req see
system.mem_ctrls1.rdQLenPdf::12                  2510                       # What read queue length does an incoming req see
system.mem_ctrls1.rdQLenPdf::13                  2608                       # What read queue length does an incoming req see
system.mem_ctrls1.rdQLenPdf::14                  2673                       # What read queue length does an incoming req see
system.mem_ctrls1.rdQLenPdf::15                  2883                       # What read queue length does an incoming req see
system.mem_ctrls1.rdQLenPdf::16                  2850                       # What read queue length does an incoming req see
system.mem_ctrls1.rdQLenPdf::17                  2983                       # What read queue length does an incoming req see
system.mem_ctrls1.rdQLenPdf::18                  3034                       # What read queue length does an incoming req see
system.mem_ctrls1.rdQLenPdf::19                  3126                       # What read queue length does an incoming req see
system.mem_ctrls1.rdQLenPdf::20                  3252                       # What read queue length does an incoming req see
system.mem_ctrls1.rdQLenPdf::21                  3364                       # What read queue length does an incoming req see
system.mem_ctrls1.rdQLenPdf::22                  3335                       # What read queue length does an incoming req see
system.mem_ctrls1.rdQLenPdf::23                  3357                       # What read queue length does an incoming req see
system.mem_ctrls1.rdQLenPdf::24                  3609                       # What read queue length does an incoming req see
system.mem_ctrls1.rdQLenPdf::25                  3709                       # What read queue length does an incoming req see
system.mem_ctrls1.rdQLenPdf::26                  3853                       # What read queue length does an incoming req see
system.mem_ctrls1.rdQLenPdf::27                  4016                       # What read queue length does an incoming req see
system.mem_ctrls1.rdQLenPdf::28                  4305                       # What read queue length does an incoming req see
system.mem_ctrls1.rdQLenPdf::29                  4654                       # What read queue length does an incoming req see
system.mem_ctrls1.rdQLenPdf::30                  5085                       # What read queue length does an incoming req see
system.mem_ctrls1.rdQLenPdf::31                 97113                       # What read queue length does an incoming req see
system.mem_ctrls1.wrQLenPdf::0                  46762                       # What write queue length does an incoming req see
system.mem_ctrls1.wrQLenPdf::1                  50573                       # What write queue length does an incoming req see
system.mem_ctrls1.wrQLenPdf::2                  52327                       # What write queue length does an incoming req see
system.mem_ctrls1.wrQLenPdf::3                  52999                       # What write queue length does an incoming req see
system.mem_ctrls1.wrQLenPdf::4                  53820                       # What write queue length does an incoming req see
system.mem_ctrls1.wrQLenPdf::5                  16758                       # What write queue length does an incoming req see
system.mem_ctrls1.wrQLenPdf::6                  20173                       # What write queue length does an incoming req see
system.mem_ctrls1.wrQLenPdf::7                  29769                       # What write queue length does an incoming req see
system.mem_ctrls1.bytesPerActivate::samples       186815                       # Bytes accessed per row activation
system.mem_ctrls1.bytesPerActivate::mean   241.897835                       # Bytes accessed per row activation
system.mem_ctrls1.bytesPerActivate::gmean   190.800917                       # Bytes accessed per row activation
system.mem_ctrls1.bytesPerActivate::stdev   170.369035                       # Bytes accessed per row activation
system.mem_ctrls1.bytesPerActivate::0-127        40114     21.47%     21.47% # Bytes accessed per row activation
system.mem_ctrls1.bytesPerActivate::128-255        52960     28.35%     49.82% # Bytes accessed per row activation
system.mem_ctrls1.bytesPerActivate::256-383        70032     37.49%     87.31% # Bytes accessed per row activation
system.mem_ctrls1.bytesPerActivate::384-511        10333      5.53%     92.84% # Bytes accessed per row activation
system.mem_ctrls1.bytesPerActivate::512-639         6113      3.27%     96.11% # Bytes accessed per row activation
system.mem_ctrls1.bytesPerActivate::640-767         2726      1.46%     97.57% # Bytes accessed per row activation
system.mem_ctrls1.bytesPerActivate::768-895         1620      0.87%     98.44% # Bytes accessed per row activation
system.mem_ctrls1.bytesPerActivate::896-1023         1043      0.56%     99.00% # Bytes accessed per row activation
system.mem_ctrls1.bytesPerActivate::1024-1151         1874      1.00%    100.00% # Bytes accessed per row activation
system.mem_ctrls1.bytesPerActivate::total       186815                       # Bytes accessed per row activation
system.mem_ctrls1.rdPerTurnAround::samples        48474                       # Reads before turning the bus around for writes
system.mem_ctrls1.rdPerTurnAround::mean      7.899554                       # Reads before turning the bus around for writes
system.mem_ctrls1.rdPerTurnAround::stdev    15.621753                       # Reads before turning the bus around for writes
system.mem_ctrls1.rdPerTurnAround::0-127        48468     99.99%     99.99% # Reads before turning the bus around for writes
system.mem_ctrls1.rdPerTurnAround::128-255            4      0.01%    100.00% # Reads before turning the bus around for writes
system.mem_ctrls1.rdPerTurnAround::1152-1279            1      0.00%    100.00% # Reads before turning the bus around for writes
system.mem_ctrls1.rdPerTurnAround::2816-2943            1      0.00%    100.00% # Reads before turning the bus around for writes
system.mem_ctrls1.rdPerTurnAround::total        48474                       # Reads before turning the bus around for writes
system.mem_ctrls1.wrPerTurnAround::samples        48474                       # Writes before turning the bus around for reads
system.mem_ctrls1.wrPerTurnAround::mean      6.667017                       # Writes before turning the bus around for reads
system.mem_ctrls1.wrPerTurnAround::gmean     6.078080                       # Writes before turning the bus around for reads
system.mem_ctrls1.wrPerTurnAround::stdev     3.449750                       # Writes before turning the bus around for reads
system.mem_ctrls1.wrPerTurnAround::4-7          38561     79.55%     79.55% # Writes before turning the bus around for reads
system.mem_ctrls1.wrPerTurnAround::8-11          2932      6.05%     85.60% # Writes before turning the bus around for reads
system.mem_ctrls1.wrPerTurnAround::12-15         4311      8.89%     94.49% # Writes before turning the bus around for reads
system.mem_ctrls1.wrPerTurnAround::16-19         2670      5.51%    100.00% # Writes before turning the bus around for reads
system.mem_ctrls1.wrPerTurnAround::total        48474                       # Writes before turning the bus around for reads
system.mem_ctrls1.totQLat                 58089661022                       # Total ticks spent queuing
system.mem_ctrls1.totMemAccLat            65269711022                       # Total ticks spent from burst creation until serviced by the DRAM
system.mem_ctrls1.totBusLat                1914680000                       # Total ticks spent in databus transfers
system.mem_ctrls1.avgQLat                   151695.48                       # Average queueing delay per DRAM burst
system.mem_ctrls1.avgBusLat                   5000.00                       # Average bus latency per DRAM burst
system.mem_ctrls1.avgMemAccLat              170445.48                       # Average memory access latency per DRAM burst
system.mem_ctrls1.avgRdBW                      159.33                       # Average DRAM read bandwidth in MiByte/s
system.mem_ctrls1.avgWrBW                      134.47                       # Average achieved write bandwidth in MiByte/s
system.mem_ctrls1.avgRdBWSys                   159.34                       # Average system read bandwidth in MiByte/s
system.mem_ctrls1.avgWrBWSys                   134.47                       # Average system write bandwidth in MiByte/s
system.mem_ctrls1.peakBW                     12800.00                       # Theoretical peak bandwidth in MiByte/s
system.mem_ctrls1.busUtil                        2.30                       # Data bus utilization in percentage
system.mem_ctrls1.busUtilRead                    1.24                       # Data bus utilization in percentage for reads
system.mem_ctrls1.busUtilWrite                   1.05                       # Data bus utilization in percentage for writes
system.mem_ctrls1.avgRdQLen                      1.38                       # Average read queue length when enqueuing
system.mem_ctrls1.avgWrQLen                      2.99                       # Average write queue length when enqueuing
system.mem_ctrls1.readRowHits                  291419                       # Number of row buffer hits during reads
system.mem_ctrls1.writeRowHits                 227870                       # Number of row buffer hits during writes
system.mem_ctrls1.readRowHitRate                76.10                       # Row buffer hit rate for reads
system.mem_ctrls1.writeRowHitRate               70.51                       # Row buffer hit rate for writes
system.mem_ctrls1.avgGap                    217823.48                       # Average gap between requests
system.mem_ctrls1.pageHitRate                   73.54                       # Row buffer hit rate, read and write combined
system.mem_ctrls1.memoryStateTime::IDLE   27041890500                       # Time in different power states
system.mem_ctrls1.memoryStateTime::REF     5136040000                       # Time in different power states
system.mem_ctrls1.memoryStateTime::PRE_PDN            0                       # Time in different power states
system.mem_ctrls1.memoryStateTime::ACT   121631925750                       # Time in different power states
system.mem_ctrls1.memoryStateTime::ACT_PDN            0                       # Time in different power states
system.mem_ctrls1.actEnergy::0              710352720                       # Energy for activate commands per rank (pJ)
system.mem_ctrls1.actEnergy::1              701908200                       # Energy for activate commands per rank (pJ)
system.mem_ctrls1.preEnergy::0              387593250                       # Energy for precharge commands per rank (pJ)
system.mem_ctrls1.preEnergy::1              382985625                       # Energy for precharge commands per rank (pJ)
system.mem_ctrls1.readEnergy::0            1500587400                       # Energy for read commands per rank (pJ)
system.mem_ctrls1.readEnergy::1            1486134000                       # Energy for read commands per rank (pJ)
system.mem_ctrls1.writeEnergy::0           1049209200                       # Energy for write commands per rank (pJ)
system.mem_ctrls1.writeEnergy::1           1044880560                       # Energy for write commands per rank (pJ)
system.mem_ctrls1.refreshEnergy::0        10046094240                       # Energy for refresh commands per rank (pJ)
system.mem_ctrls1.refreshEnergy::1        10046094240                       # Energy for refresh commands per rank (pJ)
system.mem_ctrls1.actBackEnergy::0        60080497740                       # Energy for active background per rank (pJ)
system.mem_ctrls1.actBackEnergy::1        59602891320                       # Energy for active background per rank (pJ)
system.mem_ctrls1.preBackEnergy::0        39583714500                       # Energy for precharge background per rank (pJ)
system.mem_ctrls1.preBackEnergy::1        40002667500                       # Energy for precharge background per rank (pJ)
system.mem_ctrls1.totalEnergy::0         113358049050                       # Total energy per rank (pJ)
system.mem_ctrls1.totalEnergy::1         113267561445                       # Total energy per rank (pJ)
system.mem_ctrls1.averagePower::0          737.001269                       # Core power per rank (mW)
system.mem_ctrls1.averagePower::1          736.412960                       # Core power per rank (mW)
system.mem_ctrls2.bytes_read::ruby.dir_cntrl2     24509376                       # Number of bytes read from this memory
system.mem_ctrls2.bytes_read::total          24509376                       # Number of bytes read from this memory
system.mem_ctrls2.bytes_written::ruby.dir_cntrl2     20685056                       # Number of bytes written to this memory
system.mem_ctrls2.bytes_written::total       20685056                       # Number of bytes written to this memory
system.mem_ctrls2.num_reads::ruby.dir_cntrl2       382959                       # Number of read requests responded to by this memory
system.mem_ctrls2.num_reads::total             382959                       # Number of read requests responded to by this memory
system.mem_ctrls2.num_writes::ruby.dir_cntrl2       323204                       # Number of write requests responded to by this memory
system.mem_ctrls2.num_writes::total            323204                       # Number of write requests responded to by this memory
system.mem_ctrls2.bw_read::ruby.dir_cntrl2    159343823                       # Total read bandwidth from this memory (bytes/s)
system.mem_ctrls2.bw_read::total            159343823                       # Total read bandwidth from this memory (bytes/s)
system.mem_ctrls2.bw_write::ruby.dir_cntrl2    134480613                       # Write bandwidth from this memory (bytes/s)
system.mem_ctrls2.bw_write::total           134480613                       # Write bandwidth from this memory (bytes/s)
system.mem_ctrls2.bw_total::ruby.dir_cntrl2    293824436                       # Total bandwidth to/from this memory (bytes/s)
system.mem_ctrls2.bw_total::total           293824436                       # Total bandwidth to/from this memory (bytes/s)
system.mem_ctrls2.readReqs                     382959                       # Number of read requests accepted
system.mem_ctrls2.writeReqs                    323204                       # Number of write requests accepted
system.mem_ctrls2.readBursts                   382959                       # Number of DRAM read bursts, including those serviced by the write queue
system.mem_ctrls2.writeBursts                  323204                       # Number of DRAM write bursts, including those merged in the write queue
system.mem_ctrls2.bytesReadDRAM              24508224                       # Total number of bytes read from DRAM
system.mem_ctrls2.bytesReadWrQ                   1152                       # Total number of bytes read from write queue
system.mem_ctrls2.bytesWritten               20684864                       # Total number of bytes written to DRAM
system.mem_ctrls2.bytesReadSys               24509376                       # Total read bytes from the system interface side
system.mem_ctrls2.bytesWrittenSys            20685056                       # Total written bytes from the system interface side
system.mem_ctrls2.servicedByWrQ                    18                       # Number of DRAM read bursts serviced by the write queue
system.mem_ctrls2.mergedWrBursts                    0                       # Number of DRAM write bursts merged with an existing one
system.mem_ctrls2.neitherReadNorWriteReqs            0                       # Number of requests that are neither read nor write
system.mem_ctrls2.perBankRdBursts::0            23639                       # Per bank write bursts
system.mem_ctrls2.perBankRdBursts::1            24300                       # Per bank write bursts
system.mem_ctrls2.perBankRdBursts::2            23934                       # Per bank write bursts
system.mem_ctrls2.perBankRdBursts::3            24276                       # Per bank write bursts
system.mem_ctrls2.perBankRdBursts::4            23867                       # Per bank write bursts
system.mem_ctrls2.perBankRdBursts::5            24157                       # Per bank write bursts
system.mem_ctrls2.perBankRdBursts::6            24228                       # Per bank write bursts
system.mem_ctrls2.perBankRdBursts::7            24028                       # Per bank write bursts
system.mem_ctrls2.perBankRdBursts::8            23897                       # Per bank write bursts
system.mem_ctrls2.perBankRdBursts::9            24048                       # Per bank write bursts
system.mem_ctrls2.perBankRdBursts::10           23814                       # Per bank write bursts
system.mem_ctrls2.perBankRdBursts::11           24325                       # Per bank write bursts
system.mem_ctrls2.perBankRdBursts::12           23625                       # Per bank write bursts
system.mem_ctrls2.perBankRdBursts::13           23435                       # Per bank write bursts
system.mem_ctrls2.perBankRdBursts::14           23589                       # Per bank write bursts
system.mem_ctrls2.perBankRdBursts::15           23779                       # Per bank write bursts
system.mem_ctrls2.perBankWrBursts::0            20205                       # Per bank write bursts
system.mem_ctrls2.perBankWrBursts::1            20113                       # Per bank write bursts
system.mem_ctrls2.perBankWrBursts::2            20146                       # Per bank write bursts
system.mem_ctrls2.perBankWrBursts::3            20436                       # Per bank write bursts
system.mem_ctrls2.perBankWrBursts::4            20058                       # Per bank write bursts
system.mem_ctrls2.perBankWrBursts::5            20321                       # Per bank write bursts
system.mem_ctrls2.perBankWrBursts::6            20349                       # Per bank write bursts
system.mem_ctrls2.perBankWrBursts::7            20296                       # Per bank write bursts
system.mem_ctrls2.perBankWrBursts::8            20415                       # Per bank write bursts
system.mem_ctrls2.perBankWrBursts::9            20222                       # Per bank write bursts
system.mem_ctrls2.perBankWrBursts::10           20093                       # Per bank write bursts
system.mem_ctrls2.perBankWrBursts::11           20152                       # Per bank write bursts
system.mem_ctrls2.perBankWrBursts::12           19927                       # Per bank write bursts
system.mem_ctrls2.perBankWrBursts::13           20195                       # Per bank write bursts
system.mem_ctrls2.perBankWrBursts::14           20149                       # Per bank write bursts
system.mem_ctrls2.perBankWrBursts::15           20124                       # Per bank write bursts
system.mem_ctrls2.numRdRetry                    84364                       # Number of times read queue was full causing retry
system.mem_ctrls2.numWrRetry                    13139                       # Number of times write queue was full causing retry
system.mem_ctrls2.totGap                 153813580000                       # Total gap between requests
system.mem_ctrls2.readPktSize::0                    0                       # Read request sizes (log2)
system.mem_ctrls2.readPktSize::1                    0                       # Read request sizes (log2)
system.mem_ctrls2.readPktSize::2                    0                       # Read request sizes (log2)
system.mem_ctrls2.readPktSize::3                    0                       # Read request sizes (log2)
system.mem_ctrls2.readPktSize::4                    0                       # Read request sizes (log2)
system.mem_ctrls2.readPktSize::5                    0                       # Read request sizes (log2)
system.mem_ctrls2.readPktSize::6               382959                       # Read request sizes (log2)
system.mem_ctrls2.writePktSize::0                   0                       # Write request sizes (log2)
system.mem_ctrls2.writePktSize::1                   0                       # Write request sizes (log2)
system.mem_ctrls2.writePktSize::2                   0                       # Write request sizes (log2)
system.mem_ctrls2.writePktSize::3                   0                       # Write request sizes (log2)
system.mem_ctrls2.writePktSize::4                   0                       # Write request sizes (log2)
system.mem_ctrls2.writePktSize::5                   0                       # Write request sizes (log2)
system.mem_ctrls2.writePktSize::6              323204                       # Write request sizes (log2)
system.mem_ctrls2.rdQLenPdf::0                 200599                       # What read queue length does an incoming req see
system.mem_ctrls2.rdQLenPdf::1                   1332                       # What read queue length does an incoming req see
system.mem_ctrls2.rdQLenPdf::2                   1109                       # What read queue length does an incoming req see
system.mem_ctrls2.rdQLenPdf::3                   1380                       # What read queue length does an incoming req see
system.mem_ctrls2.rdQLenPdf::4                   1541                       # What read queue length does an incoming req see
system.mem_ctrls2.rdQLenPdf::5                   1769                       # What read queue length does an incoming req see
system.mem_ctrls2.rdQLenPdf::6                   2010                       # What read queue length does an incoming req see
system.mem_ctrls2.rdQLenPdf::7                   2140                       # What read queue length does an incoming req see
system.mem_ctrls2.rdQLenPdf::8                   2361                       # What read queue length does an incoming req see
system.mem_ctrls2.rdQLenPdf::9                   2505                       # What read queue length does an incoming req see
system.mem_ctrls2.rdQLenPdf::10                  2581                       # What read queue length does an incoming req see
system.mem_ctrls2.rdQLenPdf::11                  2648                       # What read queue length does an incoming req see
system.mem_ctrls2.rdQLenPdf::12                  2675                       # What read queue length does an incoming req see
system.mem_ctrls2.rdQLenPdf::13                  2789                       # What read queue length does an incoming req see
system.mem_ctrls2.rdQLenPdf::14                  2873                       # What read queue length does an incoming req see
system.mem_ctrls2.rdQLenPdf::15                  2917                       # What read queue length does an incoming req see
system.mem_ctrls2.rdQLenPdf::16                  2993                       # What read queue length does an incoming req see
system.mem_ctrls2.rdQLenPdf::17                  3132                       # What read queue length does an incoming req see
system.mem_ctrls2.rdQLenPdf::18                  3261                       # What read queue length does an incoming req see
system.mem_ctrls2.rdQLenPdf::19                  3470                       # What read queue length does an incoming req see
system.mem_ctrls2.rdQLenPdf::20                  3553                       # What read queue length does an incoming req see
system.mem_ctrls2.rdQLenPdf::21                  3706                       # What read queue length does an incoming req see
system.mem_ctrls2.rdQLenPdf::22                  3641                       # What read queue length does an incoming req see
system.mem_ctrls2.rdQLenPdf::23                  3810                       # What read queue length does an incoming req see
system.mem_ctrls2.rdQLenPdf::24                  3927                       # What read queue length does an incoming req see
system.mem_ctrls2.rdQLenPdf::25                  4027                       # What read queue length does an incoming req see
system.mem_ctrls2.rdQLenPdf::26                  4285                       # What read queue length does an incoming req see
system.mem_ctrls2.rdQLenPdf::27                  4368                       # What read queue length does an incoming req see
system.mem_ctrls2.rdQLenPdf::28                  4493                       # What read queue length does an incoming req see
system.mem_ctrls2.rdQLenPdf::29                  4789                       # What read queue length does an incoming req see
system.mem_ctrls2.rdQLenPdf::30                  5258                       # What read queue length does an incoming req see
system.mem_ctrls2.rdQLenPdf::31                 90999                       # What read queue length does an incoming req see
system.mem_ctrls2.wrQLenPdf::0                  46725                       # What write queue length does an incoming req see
system.mem_ctrls2.wrQLenPdf::1                  50599                       # What write queue length does an incoming req see
system.mem_ctrls2.wrQLenPdf::2                  52528                       # What write queue length does an incoming req see
system.mem_ctrls2.wrQLenPdf::3                  53297                       # What write queue length does an incoming req see
system.mem_ctrls2.wrQLenPdf::4                  53941                       # What write queue length does an incoming req see
system.mem_ctrls2.wrQLenPdf::5                  16677                       # What write queue length does an incoming req see
system.mem_ctrls2.wrQLenPdf::6                  19923                       # What write queue length does an incoming req see
system.mem_ctrls2.wrQLenPdf::7                  29514                       # What write queue length does an incoming req see
system.mem_ctrls2.bytesPerActivate::samples       186239                       # Bytes accessed per row activation
system.mem_ctrls2.bytesPerActivate::mean   242.656973                       # Bytes accessed per row activation
system.mem_ctrls2.bytesPerActivate::gmean   191.855700                       # Bytes accessed per row activation
system.mem_ctrls2.bytesPerActivate::stdev   169.908780                       # Bytes accessed per row activation
system.mem_ctrls2.bytesPerActivate::0-127        39402     21.16%     21.16% # Bytes accessed per row activation
system.mem_ctrls2.bytesPerActivate::128-255        52051     27.95%     49.11% # Bytes accessed per row activation
system.mem_ctrls2.bytesPerActivate::256-383        71092     38.17%     87.28% # Bytes accessed per row activation
system.mem_ctrls2.bytesPerActivate::384-511        10514      5.65%     92.92% # Bytes accessed per row activation
system.mem_ctrls2.bytesPerActivate::512-639         5987      3.21%     96.14% # Bytes accessed per row activation
system.mem_ctrls2.bytesPerActivate::640-767         2704      1.45%     97.59% # Bytes accessed per row activation
system.mem_ctrls2.bytesPerActivate::768-895         1544      0.83%     98.42% # Bytes accessed per row activation
system.mem_ctrls2.bytesPerActivate::896-1023         1002      0.54%     98.96% # Bytes accessed per row activation
system.mem_ctrls2.bytesPerActivate::1024-1151         1943      1.04%    100.00% # Bytes accessed per row activation
system.mem_ctrls2.bytesPerActivate::total       186239                       # Bytes accessed per row activation
system.mem_ctrls2.rdPerTurnAround::samples        48525                       # Reads before turning the bus around for writes
system.mem_ctrls2.rdPerTurnAround::mean      7.891499                       # Reads before turning the bus around for writes
system.mem_ctrls2.rdPerTurnAround::stdev    15.686551                       # Reads before turning the bus around for writes
system.mem_ctrls2.rdPerTurnAround::0-127        48519     99.99%     99.99% # Reads before turning the bus around for writes
system.mem_ctrls2.rdPerTurnAround::128-255            4      0.01%    100.00% # Reads before turning the bus around for writes
system.mem_ctrls2.rdPerTurnAround::1152-1279            1      0.00%    100.00% # Reads before turning the bus around for writes
system.mem_ctrls2.rdPerTurnAround::2816-2943            1      0.00%    100.00% # Reads before turning the bus around for writes
system.mem_ctrls2.rdPerTurnAround::total        48525                       # Reads before turning the bus around for writes
system.mem_ctrls2.wrPerTurnAround::samples        48525                       # Writes before turning the bus around for reads
system.mem_ctrls2.wrPerTurnAround::mean      6.660505                       # Writes before turning the bus around for reads
system.mem_ctrls2.wrPerTurnAround::gmean     6.074132                       # Writes before turning the bus around for reads
system.mem_ctrls2.wrPerTurnAround::stdev     3.443879                       # Writes before turning the bus around for reads
system.mem_ctrls2.wrPerTurnAround::4-7          38580     79.51%     79.51% # Writes before turning the bus around for reads
system.mem_ctrls2.wrPerTurnAround::8-11          3091      6.37%     85.88% # Writes before turning the bus around for reads
system.mem_ctrls2.wrPerTurnAround::12-15         4129      8.51%     94.38% # Writes before turning the bus around for reads
system.mem_ctrls2.wrPerTurnAround::16-19         2725      5.62%    100.00% # Writes before turning the bus around for reads
system.mem_ctrls2.wrPerTurnAround::total        48525                       # Writes before turning the bus around for reads
system.mem_ctrls2.totQLat                 57003743681                       # Total ticks spent queuing
system.mem_ctrls2.totMemAccLat            64183887431                       # Total ticks spent from burst creation until serviced by the DRAM
system.mem_ctrls2.totBusLat                1914705000                       # Total ticks spent in databus transfers
system.mem_ctrls2.avgQLat                   148857.77                       # Average queueing delay per DRAM burst
system.mem_ctrls2.avgBusLat                   5000.00                       # Average bus latency per DRAM burst
system.mem_ctrls2.avgMemAccLat              167607.77                       # Average memory access latency per DRAM burst
system.mem_ctrls2.avgRdBW                      159.34                       # Average DRAM read bandwidth in MiByte/s
system.mem_ctrls2.avgWrBW                      134.48                       # Average achieved write bandwidth in MiByte/s
system.mem_ctrls2.avgRdBWSys                   159.34                       # Average system read bandwidth in MiByte/s
system.mem_ctrls2.avgWrBWSys                   134.48                       # Average system write bandwidth in MiByte/s
system.mem_ctrls2.peakBW                     12800.00                       # Theoretical peak bandwidth in MiByte/s
system.mem_ctrls2.busUtil                        2.30                       # Data bus utilization in percentage
system.mem_ctrls2.busUtilRead                    1.24                       # Data bus utilization in percentage for reads
system.mem_ctrls2.busUtilWrite                   1.05                       # Data bus utilization in percentage for writes
system.mem_ctrls2.avgRdQLen                      1.38                       # Average read queue length when enqueuing
system.mem_ctrls2.avgWrQLen                      3.01                       # Average write queue length when enqueuing
system.mem_ctrls2.readRowHits                  291391                       # Number of row buffer hits during reads
system.mem_ctrls2.writeRowHits                 228502                       # Number of row buffer hits during writes
system.mem_ctrls2.readRowHitRate                76.09                       # Row buffer hit rate for reads
system.mem_ctrls2.writeRowHitRate               70.70                       # Row buffer hit rate for writes
system.mem_ctrls2.avgGap                    217815.97                       # Average gap between requests
system.mem_ctrls2.pageHitRate                   73.62                       # Row buffer hit rate, read and write combined
system.mem_ctrls2.memoryStateTime::IDLE   27138611750                       # Time in different power states
system.mem_ctrls2.memoryStateTime::REF     5136040000                       # Time in different power states
system.mem_ctrls2.memoryStateTime::PRE_PDN            0                       # Time in different power states
system.mem_ctrls2.memoryStateTime::ACT   121535223250                       # Time in different power states
system.mem_ctrls2.memoryStateTime::ACT_PDN            0                       # Time in different power states
system.mem_ctrls2.actEnergy::0              709468200                       # Energy for activate commands per rank (pJ)
system.mem_ctrls2.actEnergy::1              698400360                       # Energy for activate commands per rank (pJ)
system.mem_ctrls2.preEnergy::0              387110625                       # Energy for precharge commands per rank (pJ)
system.mem_ctrls2.preEnergy::1              381071625                       # Energy for precharge commands per rank (pJ)
system.mem_ctrls2.readEnergy::0            1500829200                       # Energy for read commands per rank (pJ)
system.mem_ctrls2.readEnergy::1            1485946800                       # Energy for read commands per rank (pJ)
system.mem_ctrls2.writeEnergy::0           1049215680                       # Energy for write commands per rank (pJ)
system.mem_ctrls2.writeEnergy::1           1045029600                       # Energy for write commands per rank (pJ)
system.mem_ctrls2.refreshEnergy::0        10046094240                       # Energy for refresh commands per rank (pJ)
system.mem_ctrls2.refreshEnergy::1        10046094240                       # Energy for refresh commands per rank (pJ)
system.mem_ctrls2.actBackEnergy::0        59658419295                       # Energy for active background per rank (pJ)
system.mem_ctrls2.actBackEnergy::1        59194300500                       # Energy for active background per rank (pJ)
system.mem_ctrls2.preBackEnergy::0        39953970000                       # Energy for precharge background per rank (pJ)
system.mem_ctrls2.preBackEnergy::1        40361091750                       # Energy for precharge background per rank (pJ)
system.mem_ctrls2.totalEnergy::0         113305107240                       # Total energy per rank (pJ)
system.mem_ctrls2.totalEnergy::1         113211934875                       # Total energy per rank (pJ)
system.mem_ctrls2.averagePower::0          736.656976                       # Core power per rank (mW)
system.mem_ctrls2.averagePower::1          736.051213                       # Core power per rank (mW)
system.mem_ctrls3.bytes_read::ruby.dir_cntrl3     24489280                       # Number of bytes read from this memory
system.mem_ctrls3.bytes_read::total          24489280                       # Number of bytes read from this memory
system.mem_ctrls3.bytes_written::ruby.dir_cntrl3     20682752                       # Number of bytes written to this memory
system.mem_ctrls3.bytes_written::total       20682752                       # Number of bytes written to this memory
system.mem_ctrls3.num_reads::ruby.dir_cntrl3       382645                       # Number of read requests responded to by this memory
system.mem_ctrls3.num_reads::total             382645                       # Number of read requests responded to by this memory
system.mem_ctrls3.num_writes::ruby.dir_cntrl3       323168                       # Number of write requests responded to by this memory
system.mem_ctrls3.num_writes::total            323168                       # Number of write requests responded to by this memory
system.mem_ctrls3.bw_read::ruby.dir_cntrl3    159213172                       # Total read bandwidth from this memory (bytes/s)
system.mem_ctrls3.bw_read::total            159213172                       # Total read bandwidth from this memory (bytes/s)
system.mem_ctrls3.bw_write::ruby.dir_cntrl3    134465634                       # Write bandwidth from this memory (bytes/s)
system.mem_ctrls3.bw_write::total           134465634                       # Write bandwidth from this memory (bytes/s)
system.mem_ctrls3.bw_total::ruby.dir_cntrl3    293678806                       # Total bandwidth to/from this memory (bytes/s)
system.mem_ctrls3.bw_total::total           293678806                       # Total bandwidth to/from this memory (bytes/s)
system.mem_ctrls3.readReqs                     382645                       # Number of read requests accepted
system.mem_ctrls3.writeReqs                    323168                       # Number of write requests accepted
system.mem_ctrls3.readBursts                   382645                       # Number of DRAM read bursts, including those serviced by the write queue
system.mem_ctrls3.writeBursts                  323168                       # Number of DRAM write bursts, including those merged in the write queue
system.mem_ctrls3.bytesReadDRAM              24488640                       # Total number of bytes read from DRAM
system.mem_ctrls3.bytesReadWrQ                    640                       # Total number of bytes read from write queue
system.mem_ctrls3.bytesWritten               20682496                       # Total number of bytes written to DRAM
system.mem_ctrls3.bytesReadSys               24489280                       # Total read bytes from the system interface side
system.mem_ctrls3.bytesWrittenSys            20682752                       # Total written bytes from the system interface side
system.mem_ctrls3.servicedByWrQ                    10                       # Number of DRAM read bursts serviced by the write queue
system.mem_ctrls3.mergedWrBursts                    0                       # Number of DRAM write bursts merged with an existing one
system.mem_ctrls3.neitherReadNorWriteReqs            0                       # Number of requests that are neither read nor write
system.mem_ctrls3.perBankRdBursts::0            23629                       # Per bank write bursts
system.mem_ctrls3.perBankRdBursts::1            24296                       # Per bank write bursts
system.mem_ctrls3.perBankRdBursts::2            23812                       # Per bank write bursts
system.mem_ctrls3.perBankRdBursts::3            24239                       # Per bank write bursts
system.mem_ctrls3.perBankRdBursts::4            23815                       # Per bank write bursts
system.mem_ctrls3.perBankRdBursts::5            24167                       # Per bank write bursts
system.mem_ctrls3.perBankRdBursts::6            24224                       # Per bank write bursts
system.mem_ctrls3.perBankRdBursts::7            24030                       # Per bank write bursts
system.mem_ctrls3.perBankRdBursts::8            23882                       # Per bank write bursts
system.mem_ctrls3.perBankRdBursts::9            24025                       # Per bank write bursts
system.mem_ctrls3.perBankRdBursts::10           23880                       # Per bank write bursts
system.mem_ctrls3.perBankRdBursts::11           24275                       # Per bank write bursts
system.mem_ctrls3.perBankRdBursts::12           23558                       # Per bank write bursts
system.mem_ctrls3.perBankRdBursts::13           23445                       # Per bank write bursts
system.mem_ctrls3.perBankRdBursts::14           23607                       # Per bank write bursts
system.mem_ctrls3.perBankRdBursts::15           23751                       # Per bank write bursts
system.mem_ctrls3.perBankWrBursts::0            20206                       # Per bank write bursts
system.mem_ctrls3.perBankWrBursts::1            20109                       # Per bank write bursts
system.mem_ctrls3.perBankWrBursts::2            20150                       # Per bank write bursts
system.mem_ctrls3.perBankWrBursts::3            20424                       # Per bank write bursts
system.mem_ctrls3.perBankWrBursts::4            20053                       # Per bank write bursts
system.mem_ctrls3.perBankWrBursts::5            20322                       # Per bank write bursts
system.mem_ctrls3.perBankWrBursts::6            20350                       # Per bank write bursts
system.mem_ctrls3.perBankWrBursts::7            20283                       # Per bank write bursts
system.mem_ctrls3.perBankWrBursts::8            20411                       # Per bank write bursts
system.mem_ctrls3.perBankWrBursts::9            20221                       # Per bank write bursts
system.mem_ctrls3.perBankWrBursts::10           20092                       # Per bank write bursts
system.mem_ctrls3.perBankWrBursts::11           20163                       # Per bank write bursts
system.mem_ctrls3.perBankWrBursts::12           19924                       # Per bank write bursts
system.mem_ctrls3.perBankWrBursts::13           20201                       # Per bank write bursts
system.mem_ctrls3.perBankWrBursts::14           20151                       # Per bank write bursts
system.mem_ctrls3.perBankWrBursts::15           20104                       # Per bank write bursts
system.mem_ctrls3.numRdRetry                    82374                       # Number of times read queue was full causing retry
system.mem_ctrls3.numWrRetry                    12823                       # Number of times write queue was full causing retry
system.mem_ctrls3.totGap                 153813286000                       # Total gap between requests
system.mem_ctrls3.readPktSize::0                    0                       # Read request sizes (log2)
system.mem_ctrls3.readPktSize::1                    0                       # Read request sizes (log2)
system.mem_ctrls3.readPktSize::2                    0                       # Read request sizes (log2)
system.mem_ctrls3.readPktSize::3                    0                       # Read request sizes (log2)
system.mem_ctrls3.readPktSize::4                    0                       # Read request sizes (log2)
system.mem_ctrls3.readPktSize::5                    0                       # Read request sizes (log2)
system.mem_ctrls3.readPktSize::6               382645                       # Read request sizes (log2)
system.mem_ctrls3.writePktSize::0                   0                       # Write request sizes (log2)
system.mem_ctrls3.writePktSize::1                   0                       # Write request sizes (log2)
system.mem_ctrls3.writePktSize::2                   0                       # Write request sizes (log2)
system.mem_ctrls3.writePktSize::3                   0                       # Write request sizes (log2)
system.mem_ctrls3.writePktSize::4                   0                       # Write request sizes (log2)
system.mem_ctrls3.writePktSize::5                   0                       # Write request sizes (log2)
system.mem_ctrls3.writePktSize::6              323168                       # Write request sizes (log2)
system.mem_ctrls3.rdQLenPdf::0                 200241                       # What read queue length does an incoming req see
system.mem_ctrls3.rdQLenPdf::1                   1439                       # What read queue length does an incoming req see
system.mem_ctrls3.rdQLenPdf::2                   1157                       # What read queue length does an incoming req see
system.mem_ctrls3.rdQLenPdf::3                   1404                       # What read queue length does an incoming req see
system.mem_ctrls3.rdQLenPdf::4                   1675                       # What read queue length does an incoming req see
system.mem_ctrls3.rdQLenPdf::5                   1950                       # What read queue length does an incoming req see
system.mem_ctrls3.rdQLenPdf::6                   2133                       # What read queue length does an incoming req see
system.mem_ctrls3.rdQLenPdf::7                   2352                       # What read queue length does an incoming req see
system.mem_ctrls3.rdQLenPdf::8                   2480                       # What read queue length does an incoming req see
system.mem_ctrls3.rdQLenPdf::9                   2601                       # What read queue length does an incoming req see
system.mem_ctrls3.rdQLenPdf::10                  2713                       # What read queue length does an incoming req see
system.mem_ctrls3.rdQLenPdf::11                  2810                       # What read queue length does an incoming req see
system.mem_ctrls3.rdQLenPdf::12                  2907                       # What read queue length does an incoming req see
system.mem_ctrls3.rdQLenPdf::13                  2974                       # What read queue length does an incoming req see
system.mem_ctrls3.rdQLenPdf::14                  3017                       # What read queue length does an incoming req see
system.mem_ctrls3.rdQLenPdf::15                  3207                       # What read queue length does an incoming req see
system.mem_ctrls3.rdQLenPdf::16                  3247                       # What read queue length does an incoming req see
system.mem_ctrls3.rdQLenPdf::17                  3354                       # What read queue length does an incoming req see
system.mem_ctrls3.rdQLenPdf::18                  3298                       # What read queue length does an incoming req see
system.mem_ctrls3.rdQLenPdf::19                  3422                       # What read queue length does an incoming req see
system.mem_ctrls3.rdQLenPdf::20                  3485                       # What read queue length does an incoming req see
system.mem_ctrls3.rdQLenPdf::21                  3592                       # What read queue length does an incoming req see
system.mem_ctrls3.rdQLenPdf::22                  3612                       # What read queue length does an incoming req see
system.mem_ctrls3.rdQLenPdf::23                  3746                       # What read queue length does an incoming req see
system.mem_ctrls3.rdQLenPdf::24                  3779                       # What read queue length does an incoming req see
[...]
system.ruby.L2Cache_Controller.ISS.Mem_Data::total       235712                      
system.ruby.L2Cache_Controller.IS.Mem_Data |         545      3.28%      3.28% |         470      2.83%      6.11% |         464      2.79%      8.90% |         465      2.80%     11.70% |         512      3.08%     14.78% |         467      2.81%     17.59% |         504      3.03%     20.63% |         528      3.18%     23.80% |         547      3.29%     27.10% |         487      2.93%     30.03% |         533      3.21%     33.24% |         566      3.41%     36.64% |         618      3.72%     40.36% |         561      3.38%     43.74% |         579      3.48%     47.22% |         523      3.15%     50.37% |         533      3.21%     53.58% |         569      3.42%     57.00% |         563      3.39%     60.39% |         509      3.06%     63.45% |         503      3.03%     66.48% |         520      3.13%     69.61% |         480      2.89%     72.50% |         468      2.82%     75.32% |         546      3.29%     78.60% |         592      3.56%     82.17% |         533      3.21%     85.37% |         479      2.88%     88.26% |         489      2.94%     91.20% |         509      3.06%     94.26% |         488      2.94%     97.20% |         465      2.80%    100.00%
system.ruby.L2Cache_Controller.IS.Mem_Data::total        16615                      
system.ruby.L2Cache_Controller.IM.L1_GETX |           3    100.00%    100.00% |           0      0.00%    100.00% |           0      0.00%    100.00% |           0      0.00%    100.00% |           0      0.00%    100.00% |           0      0.00%    100.00% |           0      0.00%    100.00% |           0      0.00%    100.00% |           0      0.00%    100.00% |           0      0.00%    100.00% |           0      0.00%    100.00% |           0      0.00%    100.00% |           0      0.00%    100.00% |           0      0.00%    100.00% |           0      0.00%    100.00% |           0      0.00%    100.00% |           0      0.00%    100.00% |           0      0.00%    100.00% |           0      0.00%    100.00% |           0      0.00%    100.00% |           0      0.00%    100.00% |           0      0.00%    100.00% |           0      0.00%    100.00% |           0      0.00%    100.00% |           0      0.00%    100.00% |           0      0.00%    100.00% |           0      0.00%    100.00% |           0      0.00%    100.00% |           0      0.00%    100.00% |           0      0.00%    100.00% |           0      0.00%    100.00% |           0      0.00%    100.00%
system.ruby.L2Cache_Controller.IM.L1_GETX::total            3                      
system.ruby.L2Cache_Controller.IM.Mem_Data |       40411      3.13%      3.13% |       40329      3.12%      6.25% |       40341      3.12%      9.38% |       40347      3.13%     12.50% |       40351      3.13%     15.63% |       40363      3.13%     18.76% |       40339      3.12%     21.88% |       40336      3.12%     25.00% |       40349      3.13%     28.13% |       40344      3.12%     31.25% |       40329      3.12%     34.38% |       40358      3.13%     37.50% |       40339      3.12%     40.63% |       40338      3.12%     43.75% |       40341      3.12%     46.88% |       40330      3.12%     50.00% |       40352      3.13%     53.13% |       40351      3.13%     56.25% |       40349      3.13%     59.38% |       40345      3.12%     62.50% |       40340      3.12%     65.63% |       40354      3.13%     68.75% |       40339      3.12%     71.88% |       40341      3.12%     75.00% |       40347      3.13%     78.13% |       40345      3.12%     81.25% |       40349      3.13%     84.38% |       40336      3.12%     87.50% |       40336      3.12%     90.63% |       40337      3.12%     93.75% |       40349      3.13%     96.88% |       40331      3.12%    100.00%
system.ruby.L2Cache_Controller.IM.Mem_Data::total      1291046                      
system.ruby.L2Cache_Controller.SS_MB.Exclusive_Unblock |           4      8.89%      8.89% |           6     13.33%     22.22% |           2      4.44%     26.67% |           6     13.33%     40.00% |           1      2.22%     42.22% |           0      0.00%     42.22% |           1      2.22%     44.44% |           0      0.00%     44.44% |           0      0.00%     44.44% |           1      2.22%     46.67% |           1      2.22%     48.89% |           0      0.00%     48.89% |           4      8.89%     57.78% |           0      0.00%     57.78% |           3      6.67%     64.44% |           0      0.00%     64.44% |           0      0.00%     64.44% |           0      0.00%     64.44% |           9     20.00%     84.44% |           0      0.00%     84.44% |           0      0.00%     84.44% |           0      0.00%     84.44% |           0      0.00%     84.44% |           0      0.00%     84.44% |           1      2.22%     86.67% |           2      4.44%     91.11% |           1      2.22%     93.33% |           1      2.22%     95.56% |           0      0.00%     95.56% |           1      2.22%     97.78% |           1      2.22%    100.00% |           0      0.00%    100.00%
system.ruby.L2Cache_Controller.SS_MB.Exclusive_Unblock::total           45                      
system.ruby.L2Cache_Controller.MT_MB.L1_PUTX |           2    100.00%    100.00% |           0      0.00%    100.00% |           0      0.00%    100.00% |           0      0.00%    100.00% |           0      0.00%    100.00% |           0      0.00%    100.00% |           0      0.00%    100.00% |           0      0.00%    100.00% |           0      0.00%    100.00% |           0      0.00%    100.00% |           0      0.00%    100.00% |           0      0.00%    100.00% |           0      0.00%    100.00% |           0      0.00%    100.00% |           0      0.00%    100.00% |           0      0.00%    100.00% |           0      0.00%    100.00% |           0      0.00%    100.00% |           0      0.00%    100.00% |           0      0.00%    100.00% |           0      0.00%    100.00% |           0      0.00%    100.00% |           0      0.00%    100.00% |           0      0.00%    100.00% |           0      0.00%    100.00% |           0      0.00%    100.00% |           0      0.00%    100.00% |           0      0.00%    100.00% |           0      0.00%    100.00% |           0      0.00%    100.00% |           0      0.00%    100.00% |           0      0.00%    100.00%
system.ruby.L2Cache_Controller.MT_MB.L1_PUTX::total            2                      
system.ruby.L2Cache_Controller.MT_MB.Exclusive_Unblock |      173287      8.49%      8.49% |       64263      3.15%     11.64% |       58760      2.88%     14.51% |       58462      2.86%     17.38% |       57798      2.83%     20.21% |       56502      2.77%     22.98% |       55007      2.69%     25.67% |       55300      2.71%     28.38% |       59171      2.90%     31.28% |       57720      2.83%     34.11% |       60646      2.97%     37.08% |       60209      2.95%     40.03% |       56860      2.79%     42.81% |       56795      2.78%     45.59% |       56446      2.76%     48.36% |       56867      2.79%     51.14% |       59171      2.90%     54.04% |       58513      2.87%     56.91% |       59885      2.93%     59.84% |       60879      2.98%     62.82% |       60907      2.98%     65.81% |       63098      3.09%     68.90% |       64326      3.15%     72.05% |       60549      2.97%     75.02% |       61098      2.99%     78.01% |       62474      3.06%     81.07% |       60797      2.98%     84.05% |       61418      3.01%     87.06% |       64092      3.14%     90.20% |       61915      3.03%     93.23% |       70028      3.43%     96.66% |       68215      3.34%    100.00%
system.ruby.L2Cache_Controller.MT_MB.Exclusive_Unblock::total      2041458                      
system.ruby.L2Cache_Controller.MT_IIB.WB_Data |           0      0.00%      0.00% |           0      0.00%      0.00% |           0      0.00%      0.00% |           0      0.00%      0.00% |           0      0.00%      0.00% |           1     50.00%     50.00% |           0      0.00%     50.00% |           0      0.00%     50.00% |           0      0.00%     50.00% |           0      0.00%     50.00% |           0      0.00%     50.00% |           0      0.00%     50.00% |           0      0.00%     50.00% |           0      0.00%     50.00% |           0      0.00%     50.00% |           0      0.00%     50.00% |           0      0.00%     50.00% |           0      0.00%     50.00% |           0      0.00%     50.00% |           0      0.00%     50.00% |           0      0.00%     50.00% |           0      0.00%     50.00% |           0      0.00%     50.00% |           0      0.00%     50.00% |           0      0.00%     50.00% |           0      0.00%     50.00% |           0      0.00%     50.00% |           0      0.00%     50.00% |           1     50.00%    100.00% |           0      0.00%    100.00% |           0      0.00%    100.00% |           0      0.00%    100.00%
system.ruby.L2Cache_Controller.MT_IIB.WB_Data::total            2                      
system.ruby.L2Cache_Controller.MT_IIB.WB_Data_clean |          18    100.00%    100.00% |           0      0.00%    100.00% |           0      0.00%    100.00% |           0      0.00%    100.00% |           0      0.00%    100.00% |           0      0.00%    100.00% |           0      0.00%    100.00% |           0      0.00%    100.00% |           0      0.00%    100.00% |           0      0.00%    100.00% |           0      0.00%    100.00% |           0      0.00%    100.00% |           0      0.00%    100.00% |           0      0.00%    100.00% |           0      0.00%    100.00% |           0      0.00%    100.00% |           0      0.00%    100.00% |           0      0.00%    100.00% |           0      0.00%    100.00% |           0      0.00%    100.00% |           0      0.00%    100.00% |           0      0.00%    100.00% |           0      0.00%    100.00% |           0      0.00%    100.00% |           0      0.00%    100.00% |           0      0.00%    100.00% |           0      0.00%    100.00% |           0      0.00%    100.00% |           0      0.00%    100.00% |           0      0.00%    100.00% |           0      0.00%    100.00% |           0      0.00%    100.00%
system.ruby.L2Cache_Controller.MT_IIB.WB_Data_clean::total           18                      
system.ruby.L2Cache_Controller.MT_IIB.Unblock |           1    100.00%    100.00% |           0      0.00%    100.00% |           0      0.00%    100.00% |           0      0.00%    100.00% |           0      0.00%    100.00% |           0      0.00%    100.00% |           0      0.00%    100.00% |           0      0.00%    100.00% |           0      0.00%    100.00% |           0      0.00%    100.00% |           0      0.00%    100.00% |           0      0.00%    100.00% |           0      0.00%    100.00% |           0      0.00%    100.00% |           0      0.00%    100.00% |           0      0.00%    100.00% |           0      0.00%    100.00% |           0      0.00%    100.00% |           0      0.00%    100.00% |           0      0.00%    100.00% |           0      0.00%    100.00% |           0      0.00%    100.00% |           0      0.00%    100.00% |           0      0.00%    100.00% |           0      0.00%    100.00% |           0      0.00%    100.00% |           0      0.00%    100.00% |           0      0.00%    100.00% |           0      0.00%    100.00% |           0      0.00%    100.00% |           0      0.00%    100.00% |           0      0.00%    100.00%
system.ruby.L2Cache_Controller.MT_IIB.Unblock::total            1                      
system.ruby.L2Cache_Controller.MT_IB.WB_Data_clean |           1    100.00%    100.00% |           0      0.00%    100.00% |           0      0.00%    100.00% |           0      0.00%    100.00% |           0      0.00%    100.00% |           0      0.00%    100.00% |           0      0.00%    100.00% |           0      0.00%    100.00% |           0      0.00%    100.00% |           0      0.00%    100.00% |           0      0.00%    100.00% |           0      0.00%    100.00% |           0      0.00%    100.00% |           0      0.00%    100.00% |           0      0.00%    100.00% |           0      0.00%    100.00% |           0      0.00%    100.00% |           0      0.00%    100.00% |           0      0.00%    100.00% |           0      0.00%    100.00% |           0      0.00%    100.00% |           0      0.00%    100.00% |           0      0.00%    100.00% |           0      0.00%    100.00% |           0      0.00%    100.00% |           0      0.00%    100.00% |           0      0.00%    100.00% |           0      0.00%    100.00% |           0      0.00%    100.00% |           0      0.00%    100.00% |           0      0.00%    100.00% |           0      0.00%    100.00%
system.ruby.L2Cache_Controller.MT_IB.WB_Data_clean::total            1                      
system.ruby.L2Cache_Controller.MT_SB.Unblock |          18     90.00%     90.00% |           0      0.00%     90.00% |           0      0.00%     90.00% |           0      0.00%     90.00% |           0      0.00%     90.00% |           1      5.00%     95.00% |           0      0.00%     95.00% |           0      0.00%     95.00% |           0      0.00%     95.00% |           0      0.00%     95.00% |           0      0.00%     95.00% |           0      0.00%     95.00% |           0      0.00%     95.00% |           0      0.00%     95.00% |           0      0.00%     95.00% |           0      0.00%     95.00% |           0      0.00%     95.00% |           0      0.00%     95.00% |           0      0.00%     95.00% |           0      0.00%     95.00% |           0      0.00%     95.00% |           0      0.00%     95.00% |           0      0.00%     95.00% |           0      0.00%     95.00% |           0      0.00%     95.00% |           0      0.00%     95.00% |           0      0.00%     95.00% |           0      0.00%     95.00% |           1      5.00%    100.00% |           0      0.00%    100.00% |           0      0.00%    100.00% |           0      0.00%    100.00%
system.ruby.L2Cache_Controller.MT_SB.Unblock::total           20                      
system.ruby.SimicsNetworkPortInterface_Controller.MessageSend |      112418     21.19%     21.19% |      265308     50.00%     71.19% |       18769      3.54%     74.72% |       20390      3.84%     78.57% |       19002      3.58%     82.15% |       20376      3.84%     85.99% |       18726      3.53%     89.52% |       20640      3.89%     93.41% |       17090      3.22%     96.63% |       17897      3.37%    100.00% |           0      0.00%    100.00% |           0      0.00%    100.00% |           0      0.00%    100.00% |           0      0.00%    100.00% |           0      0.00%    100.00% |           0      0.00%    100.00% |           0      0.00%    100.00% |           0      0.00%    100.00% |           0      0.00%    100.00% |           0      0.00%    100.00% |           0      0.00%    100.00% |           0      0.00%    100.00% |           0      0.00%    100.00% |           0      0.00%    100.00% |           0      0.00%    100.00% |           0      0.00%    100.00% |           0      0.00%    100.00% |           0      0.00%    100.00% |           0      0.00%    100.00% |           0      0.00%    100.00% |           0      0.00%    100.00% |           0      0.00%    100.00%
system.ruby.SimicsNetworkPortInterface_Controller.MessageSend::total       530616                      
system.ruby.SimicsNetworkPortInterface_Controller.MessageRecv |      112418     21.19%     21.19% |      265308     50.00%     71.19% |       18769      3.54%     74.72% |       20390      3.84%     78.57% |       19002      3.58%     82.15% |       20376      3.84%     85.99% |       18726      3.53%     89.52% |       20640      3.89%     93.41% |       17090      3.22%     96.63% |       17897      3.37%    100.00% |           0      0.00%    100.00% |           0      0.00%    100.00% |           0      0.00%    100.00% |           0      0.00%    100.00% |           0      0.00%    100.00% |           0      0.00%    100.00% |           0      0.00%    100.00% |           0      0.00%    100.00% |           0      0.00%    100.00% |           0      0.00%    100.00% |           0      0.00%    100.00% |           0      0.00%    100.00% |           0      0.00%    100.00% |           0      0.00%    100.00% |           0      0.00%    100.00% |           0      0.00%    100.00% |           0      0.00%    100.00% |           0      0.00%    100.00% |           0      0.00%    100.00% |           0      0.00%    100.00% |           0      0.00%    100.00% |           0      0.00%    100.00%
system.ruby.SimicsNetworkPortInterface_Controller.MessageRecv::total       530616                      
system.ruby.SimicsNetworkPortInterface_Controller.A.MessageSend |      112418     21.19%     21.19% |      265308     50.00%     71.19% |       18769      3.54%     74.72% |       20390      3.84%     78.57% |       19002      3.58%     82.15% |       20376      3.84%     85.99% |       18726      3.53%     89.52% |       20640      3.89%     93.41% |       17090      3.22%     96.63% |       17897      3.37%    100.00% |           0      0.00%    100.00% |           0      0.00%    100.00% |           0      0.00%    100.00% |           0      0.00%    100.00% |           0      0.00%    100.00% |           0      0.00%    100.00% |           0      0.00%    100.00% |           0      0.00%    100.00% |           0      0.00%    100.00% |           0      0.00%    100.00% |           0      0.00%    100.00% |           0      0.00%    100.00% |           0      0.00%    100.00% |           0      0.00%    100.00% |           0      0.00%    100.00% |           0      0.00%    100.00% |           0      0.00%    100.00% |           0      0.00%    100.00% |           0      0.00%    100.00% |           0      0.00%    100.00% |           0      0.00%    100.00% |           0      0.00%    100.00%
system.ruby.SimicsNetworkPortInterface_Controller.A.MessageSend::total       530616                      
system.ruby.SimicsNetworkPortInterface_Controller.A.MessageRecv |      112418     21.19%     21.19% |      265308     50.00%     71.19% |       18769      3.54%     74.72% |       20390      3.84%     78.57% |       19002      3.58%     82.15% |       20376      3.84%     85.99% |       18726      3.53%     89.52% |       20640      3.89%     93.41% |       17090      3.22%     96.63% |       17897      3.37%    100.00% |           0      0.00%    100.00% |           0      0.00%    100.00% |           0      0.00%    100.00% |           0      0.00%    100.00% |           0      0.00%    100.00% |           0      0.00%    100.00% |           0      0.00%    100.00% |           0      0.00%    100.00% |           0      0.00%    100.00% |           0      0.00%    100.00% |           0      0.00%    100.00% |           0      0.00%    100.00% |           0      0.00%    100.00% |           0      0.00%    100.00% |           0      0.00%    100.00% |           0      0.00%    100.00% |           0      0.00%    100.00% |           0      0.00%    100.00% |           0      0.00%    100.00% |           0      0.00%    100.00% |           0      0.00%    100.00% |           0      0.00%    100.00%
system.ruby.SimicsNetworkPortInterface_Controller.A.MessageRecv::total       530616                      
system.switch_cpus.kern.inst.arm                    0                       # number of arm instructions executed
system.switch_cpus.kern.inst.quiesce                0                       # number of quiesce instructions executed

---------- End Simulation Statistics   ----------
