
---------- Begin Simulation Statistics ----------
sim_seconds                                  0.092972                       # Number of seconds simulated
sim_ticks                                 92972168500                       # Number of ticks simulated
final_tick                               5269140247000                       # Number of ticks from beginning of simulation (restored from checkpoints and never reset)
sim_freq                                 1000000000000                       # Frequency of simulated ticks
host_inst_rate                                  52084                       # Simulator instruction rate (inst/s)
host_op_rate                                    91982                       # Simulator op (including micro ops) rate (op/s)
host_tick_rate                              114843476                       # Simulator tick rate (ticks/s)
host_mem_usage                                5826016                       # Number of bytes of host memory used
host_seconds                                   809.56                       # Real time elapsed on the host
sim_insts                                    42165183                       # Number of instructions simulated
sim_ops                                      74464586                       # Number of ops (including micro ops) simulated
system.voltage_domain.voltage                       1                       # Voltage in Volts
system.clk_domain.clock                           500                       # Clock period in ticks
system.mem_ctrls0.bytes_read::ruby.dir_cntrl0     21133376                       # Number of bytes read from this memory
system.mem_ctrls0.bytes_read::total          21133376                       # Number of bytes read from this memory
system.mem_ctrls0.bytes_written::ruby.dir_cntrl0     11913472                       # Number of bytes written to this memory
system.mem_ctrls0.bytes_written::total       11913472                       # Number of bytes written to this memory
system.mem_ctrls0.num_reads::ruby.dir_cntrl0       330209                       # Number of read requests responded to by this memory
system.mem_ctrls0.num_reads::total             330209                       # Number of read requests responded to by this memory
system.mem_ctrls0.num_writes::ruby.dir_cntrl0       186148                       # Number of write requests responded to by this memory
system.mem_ctrls0.num_writes::total            186148                       # Number of write requests responded to by this memory
system.mem_ctrls0.bw_read::ruby.dir_cntrl0    227308627                       # Total read bandwidth from this memory (bytes/s)
system.mem_ctrls0.bw_read::total            227308627                       # Total read bandwidth from this memory (bytes/s)
system.mem_ctrls0.bw_write::ruby.dir_cntrl0    128140197                       # Write bandwidth from this memory (bytes/s)
system.mem_ctrls0.bw_write::total           128140197                       # Write bandwidth from this memory (bytes/s)
system.mem_ctrls0.bw_total::ruby.dir_cntrl0    355448824                       # Total bandwidth to/from this memory (bytes/s)
system.mem_ctrls0.bw_total::total           355448824                       # Total bandwidth to/from this memory (bytes/s)
system.mem_ctrls0.readReqs                     330209                       # Number of read requests accepted
system.mem_ctrls0.writeReqs                    186148                       # Number of write requests accepted
system.mem_ctrls0.readBursts                   330209                       # Number of DRAM read bursts, including those serviced by the write queue
system.mem_ctrls0.writeBursts                  186148                       # Number of DRAM write bursts, including those merged in the write queue
system.mem_ctrls0.bytesReadDRAM              21131008                       # Total number of bytes read from DRAM
system.mem_ctrls0.bytesReadWrQ                   2368                       # Total number of bytes read from write queue
system.mem_ctrls0.bytesWritten               11913472                       # Total number of bytes written to DRAM
system.mem_ctrls0.bytesReadSys               21133376                       # Total read bytes from the system interface side
system.mem_ctrls0.bytesWrittenSys            11913472                       # Total written bytes from the system interface side
system.mem_ctrls0.servicedByWrQ                    37                       # Number of DRAM read bursts serviced by the write queue
system.mem_ctrls0.mergedWrBursts                    0                       # Number of DRAM write bursts merged with an existing one
system.mem_ctrls0.neitherReadNorWriteReqs            0                       # Number of requests that are neither read nor write
system.mem_ctrls0.perBankRdBursts::0            20358                       # Per bank write bursts
system.mem_ctrls0.perBankRdBursts::1            21005                       # Per bank write bursts
system.mem_ctrls0.perBankRdBursts::2            20527                       # Per bank write bursts
system.mem_ctrls0.perBankRdBursts::3            20867                       # Per bank write bursts
system.mem_ctrls0.perBankRdBursts::4            20519                       # Per bank write bursts
system.mem_ctrls0.perBankRdBursts::5            21046                       # Per bank write bursts
system.mem_ctrls0.perBankRdBursts::6            20645                       # Per bank write bursts
system.mem_ctrls0.perBankRdBursts::7            20709                       # Per bank write bursts
system.mem_ctrls0.perBankRdBursts::8            20704                       # Per bank write bursts
system.mem_ctrls0.perBankRdBursts::9            20906                       # Per bank write bursts
system.mem_ctrls0.perBankRdBursts::10           20618                       # Per bank write bursts
system.mem_ctrls0.perBankRdBursts::11           20956                       # Per bank write bursts
system.mem_ctrls0.perBankRdBursts::12           20272                       # Per bank write bursts
system.mem_ctrls0.perBankRdBursts::13           20153                       # Per bank write bursts
system.mem_ctrls0.perBankRdBursts::14           20484                       # Per bank write bursts
system.mem_ctrls0.perBankRdBursts::15           20403                       # Per bank write bursts
system.mem_ctrls0.perBankWrBursts::0            11512                       # Per bank write bursts
system.mem_ctrls0.perBankWrBursts::1            11660                       # Per bank write bursts
system.mem_ctrls0.perBankWrBursts::2            11670                       # Per bank write bursts
system.mem_ctrls0.perBankWrBursts::3            11651                       # Per bank write bursts
system.mem_ctrls0.perBankWrBursts::4            11616                       # Per bank write bursts
system.mem_ctrls0.perBankWrBursts::5            11930                       # Per bank write bursts
system.mem_ctrls0.perBankWrBursts::6            11562                       # Per bank write bursts
system.mem_ctrls0.perBankWrBursts::7            11685                       # Per bank write bursts
system.mem_ctrls0.perBankWrBursts::8            11898                       # Per bank write bursts
system.mem_ctrls0.perBankWrBursts::9            11721                       # Per bank write bursts
system.mem_ctrls0.perBankWrBursts::10           11525                       # Per bank write bursts
system.mem_ctrls0.perBankWrBursts::11           11709                       # Per bank write bursts
system.mem_ctrls0.perBankWrBursts::12           11346                       # Per bank write bursts
system.mem_ctrls0.perBankWrBursts::13           11311                       # Per bank write bursts
system.mem_ctrls0.perBankWrBursts::14           11751                       # Per bank write bursts
system.mem_ctrls0.perBankWrBursts::15           11601                       # Per bank write bursts
system.mem_ctrls0.numRdRetry                     3062                       # Number of times read queue was full causing retry
system.mem_ctrls0.numWrRetry                     2148                       # Number of times write queue was full causing retry
system.mem_ctrls0.totGap                  92971605500                       # Total gap between requests
system.mem_ctrls0.readPktSize::0                    0                       # Read request sizes (log2)
system.mem_ctrls0.readPktSize::1                    0                       # Read request sizes (log2)
system.mem_ctrls0.readPktSize::2                    0                       # Read request sizes (log2)
system.mem_ctrls0.readPktSize::3                    0                       # Read request sizes (log2)
system.mem_ctrls0.readPktSize::4                    0                       # Read request sizes (log2)
system.mem_ctrls0.readPktSize::5                    0                       # Read request sizes (log2)
system.mem_ctrls0.readPktSize::6               330209                       # Read request sizes (log2)
system.mem_ctrls0.writePktSize::0                   0                       # Write request sizes (log2)
system.mem_ctrls0.writePktSize::1                   0                       # Write request sizes (log2)
system.mem_ctrls0.writePktSize::2                   0                       # Write request sizes (log2)
system.mem_ctrls0.writePktSize::3                   0                       # Write request sizes (log2)
system.mem_ctrls0.writePktSize::4                   0                       # Write request sizes (log2)
system.mem_ctrls0.writePktSize::5                   0                       # Write request sizes (log2)
system.mem_ctrls0.writePktSize::6              186148                       # Write request sizes (log2)
system.mem_ctrls0.rdQLenPdf::0                 153957                       # What read queue length does an incoming req see
system.mem_ctrls0.rdQLenPdf::1                  36508                       # What read queue length does an incoming req see
system.mem_ctrls0.rdQLenPdf::2                  27865                       # What read queue length does an incoming req see
system.mem_ctrls0.rdQLenPdf::3                  21043                       # What read queue length does an incoming req see
system.mem_ctrls0.rdQLenPdf::4                  16425                       # What read queue length does an incoming req see
system.mem_ctrls0.rdQLenPdf::5                  13078                       # What read queue length does an incoming req see
system.mem_ctrls0.rdQLenPdf::6                  10304                       # What read queue length does an incoming req see
system.mem_ctrls0.rdQLenPdf::7                   8186                       # What read queue length does an incoming req see
system.mem_ctrls0.rdQLenPdf::8                   6537                       # What read queue length does an incoming req see
system.mem_ctrls0.rdQLenPdf::9                   5315                       # What read queue length does an incoming req see
system.mem_ctrls0.rdQLenPdf::10                  4410                       # What read queue length does an incoming req see
system.mem_ctrls0.rdQLenPdf::11                  3570                       # What read queue length does an incoming req see
system.mem_ctrls0.rdQLenPdf::12                  3070                       # What read queue length does an incoming req see
system.mem_ctrls0.rdQLenPdf::13                  2439                       # What read queue length does an incoming req see
system.mem_ctrls0.rdQLenPdf::14                  2125                       # What read queue length does an incoming req see
system.mem_ctrls0.rdQLenPdf::15                  1767                       # What read queue length does an incoming req see
system.mem_ctrls0.rdQLenPdf::16                  1442                       # What read queue length does an incoming req see
system.mem_ctrls0.rdQLenPdf::17                  1237                       # What read queue length does an incoming req see
system.mem_ctrls0.rdQLenPdf::18                  1110                       # What read queue length does an incoming req see
system.mem_ctrls0.rdQLenPdf::19                   985                       # What read queue length does an incoming req see
system.mem_ctrls0.rdQLenPdf::20                   805                       # What read queue length does an incoming req see
system.mem_ctrls0.rdQLenPdf::21                   717                       # What read queue length does an incoming req see
system.mem_ctrls0.rdQLenPdf::22                   637                       # What read queue length does an incoming req see
system.mem_ctrls0.rdQLenPdf::23                   575                       # What read queue length does an incoming req see
system.mem_ctrls0.rdQLenPdf::24                   514                       # What read queue length does an incoming req see
system.mem_ctrls0.rdQLenPdf::25                   425                       # What read queue length does an incoming req see
system.mem_ctrls0.rdQLenPdf::26                   401                       # What read queue length does an incoming req see
system.mem_ctrls0.rdQLenPdf::27                   327                       # What read queue length does an incoming req see
system.mem_ctrls0.rdQLenPdf::28                   319                       # What read queue length does an incoming req see
system.mem_ctrls0.rdQLenPdf::29                   269                       # What read queue length does an incoming req see
system.mem_ctrls0.rdQLenPdf::30                   296                       # What read queue length does an incoming req see
system.mem_ctrls0.rdQLenPdf::31                  3514                       # What read queue length does an incoming req see
system.mem_ctrls0.wrQLenPdf::0                  33038                       # What write queue length does an incoming req see
system.mem_ctrls0.wrQLenPdf::1                  35506                       # What write queue length does an incoming req see
system.mem_ctrls0.wrQLenPdf::2                  36070                       # What write queue length does an incoming req see
system.mem_ctrls0.wrQLenPdf::3                  35955                       # What write queue length does an incoming req see
system.mem_ctrls0.wrQLenPdf::4                  35440                       # What write queue length does an incoming req see
system.mem_ctrls0.wrQLenPdf::5                   3592                       # What write queue length does an incoming req see
system.mem_ctrls0.wrQLenPdf::6                   2690                       # What write queue length does an incoming req see
system.mem_ctrls0.wrQLenPdf::7                   3857                       # What write queue length does an incoming req see
system.mem_ctrls0.bytesPerActivate::samples       158777                       # Bytes accessed per row activation
system.mem_ctrls0.bytesPerActivate::mean   208.113165                       # Bytes accessed per row activation
system.mem_ctrls0.bytesPerActivate::gmean   156.946402                       # Bytes accessed per row activation
system.mem_ctrls0.bytesPerActivate::stdev   171.024742                       # Bytes accessed per row activation
system.mem_ctrls0.bytesPerActivate::0-127        51492     32.43%     32.43% # Bytes accessed per row activation
system.mem_ctrls0.bytesPerActivate::128-255        47360     29.83%     62.26% # Bytes accessed per row activation
system.mem_ctrls0.bytesPerActivate::256-383        43689     27.52%     89.77% # Bytes accessed per row activation
system.mem_ctrls0.bytesPerActivate::384-511         6664      4.20%     93.97% # Bytes accessed per row activation
system.mem_ctrls0.bytesPerActivate::512-639         3925      2.47%     96.44% # Bytes accessed per row activation
system.mem_ctrls0.bytesPerActivate::640-767         1978      1.25%     97.69% # Bytes accessed per row activation
system.mem_ctrls0.bytesPerActivate::768-895         1286      0.81%     98.50% # Bytes accessed per row activation
system.mem_ctrls0.bytesPerActivate::896-1023          887      0.56%     99.06% # Bytes accessed per row activation
system.mem_ctrls0.bytesPerActivate::1024-1151         1496      0.94%    100.00% # Bytes accessed per row activation
system.mem_ctrls0.bytesPerActivate::total       158777                       # Bytes accessed per row activation
system.mem_ctrls0.rdPerTurnAround::samples        33315                       # Reads before turning the bus around for writes
system.mem_ctrls0.rdPerTurnAround::mean      9.910551                       # Reads before turning the bus around for writes
system.mem_ctrls0.rdPerTurnAround::stdev    23.900280                       # Reads before turning the bus around for writes
system.mem_ctrls0.rdPerTurnAround::0-127        33308     99.98%     99.98% # Reads before turning the bus around for writes
system.mem_ctrls0.rdPerTurnAround::128-255            6      0.02%    100.00% # Reads before turning the bus around for writes
system.mem_ctrls0.rdPerTurnAround::3968-4095            1      0.00%    100.00% # Reads before turning the bus around for writes
system.mem_ctrls0.rdPerTurnAround::total        33315                       # Reads before turning the bus around for writes
system.mem_ctrls0.wrPerTurnAround::samples        33315                       # Writes before turning the bus around for reads
system.mem_ctrls0.wrPerTurnAround::mean      5.587513                       # Writes before turning the bus around for reads
system.mem_ctrls0.wrPerTurnAround::gmean     5.430057                       # Writes before turning the bus around for reads
system.mem_ctrls0.wrPerTurnAround::stdev     1.720624                       # Writes before turning the bus around for reads
system.mem_ctrls0.wrPerTurnAround::4-7          30778     92.38%     92.38% # Writes before turning the bus around for reads
system.mem_ctrls0.wrPerTurnAround::8-11          1765      5.30%     97.68% # Writes before turning the bus around for reads
system.mem_ctrls0.wrPerTurnAround::12-15          412      1.24%     98.92% # Writes before turning the bus around for reads
system.mem_ctrls0.wrPerTurnAround::16-19          360      1.08%    100.00% # Writes before turning the bus around for reads
system.mem_ctrls0.wrPerTurnAround::total        33315                       # Writes before turning the bus around for reads
system.mem_ctrls0.totQLat                 13958972280                       # Total ticks spent queuing
system.mem_ctrls0.totMemAccLat            20149697280                       # Total ticks spent from burst creation until serviced by the DRAM
system.mem_ctrls0.totBusLat                1650860000                       # Total ticks spent in databus transfers
system.mem_ctrls0.avgQLat                    42277.88                       # Average queueing delay per DRAM burst
system.mem_ctrls0.avgBusLat                   5000.00                       # Average bus latency per DRAM burst
system.mem_ctrls0.avgMemAccLat               61027.88                       # Average memory access latency per DRAM burst
system.mem_ctrls0.avgRdBW                      227.28                       # Average DRAM read bandwidth in MiByte/s
system.mem_ctrls0.avgWrBW                      128.14                       # Average achieved write bandwidth in MiByte/s
system.mem_ctrls0.avgRdBWSys                   227.31                       # Average system read bandwidth in MiByte/s
system.mem_ctrls0.avgWrBWSys                   128.14                       # Average system write bandwidth in MiByte/s
system.mem_ctrls0.peakBW                     12800.00                       # Theoretical peak bandwidth in MiByte/s
system.mem_ctrls0.busUtil                        2.78                       # Data bus utilization in percentage
system.mem_ctrls0.busUtilRead                    1.78                       # Data bus utilization in percentage for reads
system.mem_ctrls0.busUtilWrite                   1.00                       # Data bus utilization in percentage for writes
system.mem_ctrls0.avgRdQLen                      1.22                       # Average read queue length when enqueuing
system.mem_ctrls0.avgWrQLen                      2.96                       # Average write queue length when enqueuing
system.mem_ctrls0.readRowHits                  246499                       # Number of row buffer hits during reads
system.mem_ctrls0.writeRowHits                 111033                       # Number of row buffer hits during writes
system.mem_ctrls0.readRowHitRate                74.66                       # Row buffer hit rate for reads
system.mem_ctrls0.writeRowHitRate               59.65                       # Row buffer hit rate for writes
system.mem_ctrls0.avgGap                    180052.96                       # Average gap between requests
system.mem_ctrls0.pageHitRate                   69.25                       # Row buffer hit rate, read and write combined
system.mem_ctrls0.memoryStateTime::IDLE   15185643500                       # Time in different power states
system.mem_ctrls0.memoryStateTime::REF     3104400000                       # Time in different power states
system.mem_ctrls0.memoryStateTime::PRE_PDN            0                       # Time in different power states
system.mem_ctrls0.memoryStateTime::ACT    74679069000                       # Time in different power states
system.mem_ctrls0.memoryStateTime::ACT_PDN            0                       # Time in different power states
system.mem_ctrls0.actEnergy::0              604852920                       # Energy for activate commands per rank (pJ)
system.mem_ctrls0.actEnergy::1              595433160                       # Energy for activate commands per rank (pJ)
system.mem_ctrls0.preEnergy::0              330028875                       # Energy for precharge commands per rank (pJ)
system.mem_ctrls0.preEnergy::1              324889125                       # Energy for precharge commands per rank (pJ)
system.mem_ctrls0.readEnergy::0            1292194800                       # Energy for read commands per rank (pJ)
system.mem_ctrls0.readEnergy::1            1282998600                       # Energy for read commands per rank (pJ)
system.mem_ctrls0.writeEnergy::0            604473840                       # Energy for write commands per rank (pJ)
system.mem_ctrls0.writeEnergy::1            601732800                       # Energy for write commands per rank (pJ)
system.mem_ctrls0.refreshEnergy::0         6072206400                       # Energy for refresh commands per rank (pJ)
system.mem_ctrls0.refreshEnergy::1         6072206400                       # Energy for refresh commands per rank (pJ)
system.mem_ctrls0.actBackEnergy::0        38649830400                       # Energy for active background per rank (pJ)
system.mem_ctrls0.actBackEnergy::1        37926489285                       # Energy for active background per rank (pJ)
system.mem_ctrls0.preBackEnergy::0        21877491000                       # Energy for precharge background per rank (pJ)
system.mem_ctrls0.preBackEnergy::1        22512000750                       # Energy for precharge background per rank (pJ)
system.mem_ctrls0.totalEnergy::0          69431078235                       # Total energy per rank (pJ)
system.mem_ctrls0.totalEnergy::1          69315750120                       # Total energy per rank (pJ)
system.mem_ctrls0.averagePower::0          746.827024                       # Core power per rank (mW)
system.mem_ctrls0.averagePower::1          745.586511                       # Core power per rank (mW)
system.mem_ctrls1.bytes_read::ruby.dir_cntrl1     20712000                       # Number of bytes read from this memory
system.mem_ctrls1.bytes_read::total          20712000                       # Number of bytes read from this memory
system.mem_ctrls1.bytes_written::ruby.dir_cntrl1     11493824                       # Number of bytes written to this memory
system.mem_ctrls1.bytes_written::total       11493824                       # Number of bytes written to this memory
system.mem_ctrls1.num_reads::ruby.dir_cntrl1       323625                       # Number of read requests responded to by this memory
system.mem_ctrls1.num_reads::total             323625                       # Number of read requests responded to by this memory
system.mem_ctrls1.num_writes::ruby.dir_cntrl1       179591                       # Number of write requests responded to by this memory
system.mem_ctrls1.num_writes::total            179591                       # Number of write requests responded to by this memory
system.mem_ctrls1.bw_read::ruby.dir_cntrl1    222776346                       # Total read bandwidth from this memory (bytes/s)
system.mem_ctrls1.bw_read::total            222776346                       # Total read bandwidth from this memory (bytes/s)
system.mem_ctrls1.bw_write::ruby.dir_cntrl1    123626502                       # Write bandwidth from this memory (bytes/s)
system.mem_ctrls1.bw_write::total           123626502                       # Write bandwidth from this memory (bytes/s)
system.mem_ctrls1.bw_total::ruby.dir_cntrl1    346402849                       # Total bandwidth to/from this memory (bytes/s)
system.mem_ctrls1.bw_total::total           346402849                       # Total bandwidth to/from this memory (bytes/s)
system.mem_ctrls1.readReqs                     323625                       # Number of read requests accepted
system.mem_ctrls1.writeReqs                    179591                       # Number of write requests accepted
system.mem_ctrls1.readBursts                   323625                       # Number of DRAM read bursts, including those serviced by the write queue
system.mem_ctrls1.writeBursts                  179591                       # Number of DRAM write bursts, including those merged in the write queue
system.mem_ctrls1.bytesReadDRAM              20709696                       # Total number of bytes read from DRAM
system.mem_ctrls1.bytesReadWrQ                   2304                       # Total number of bytes read from write queue
system.mem_ctrls1.bytesWritten               11493696                       # Total number of bytes written to DRAM
system.mem_ctrls1.bytesReadSys               20712000                       # Total read bytes from the system interface side
system.mem_ctrls1.bytesWrittenSys            11493824                       # Total written bytes from the system interface side
system.mem_ctrls1.servicedByWrQ                    36                       # Number of DRAM read bursts serviced by the write queue
system.mem_ctrls1.mergedWrBursts                    0                       # Number of DRAM write bursts merged with an existing one
system.mem_ctrls1.neitherReadNorWriteReqs            0                       # Number of requests that are neither read nor write
system.mem_ctrls1.perBankRdBursts::0            19975                       # Per bank write bursts
system.mem_ctrls1.perBankRdBursts::1            20554                       # Per bank write bursts
system.mem_ctrls1.perBankRdBursts::2            20110                       # Per bank write bursts
system.mem_ctrls1.perBankRdBursts::3            20446                       # Per bank write bursts
system.mem_ctrls1.perBankRdBursts::4            20158                       # Per bank write bursts
system.mem_ctrls1.perBankRdBursts::5            20651                       # Per bank write bursts
system.mem_ctrls1.perBankRdBursts::6            20241                       # Per bank write bursts
system.mem_ctrls1.perBankRdBursts::7            20405                       # Per bank write bursts
system.mem_ctrls1.perBankRdBursts::8            20255                       # Per bank write bursts
system.mem_ctrls1.perBankRdBursts::9            20446                       # Per bank write bursts
system.mem_ctrls1.perBankRdBursts::10           20224                       # Per bank write bursts
system.mem_ctrls1.perBankRdBursts::11           20542                       # Per bank write bursts
system.mem_ctrls1.perBankRdBursts::12           19844                       # Per bank write bursts
system.mem_ctrls1.perBankRdBursts::13           19762                       # Per bank write bursts
system.mem_ctrls1.perBankRdBursts::14           19953                       # Per bank write bursts
system.mem_ctrls1.perBankRdBursts::15           20023                       # Per bank write bursts
system.mem_ctrls1.perBankWrBursts::0            11110                       # Per bank write bursts
system.mem_ctrls1.perBankWrBursts::1            11266                       # Per bank write bursts
system.mem_ctrls1.perBankWrBursts::2            11263                       # Per bank write bursts
system.mem_ctrls1.perBankWrBursts::3            11245                       # Per bank write bursts
system.mem_ctrls1.perBankWrBursts::4            11222                       # Per bank write bursts
system.mem_ctrls1.perBankWrBursts::5            11526                       # Per bank write bursts
system.mem_ctrls1.perBankWrBursts::6            11138                       # Per bank write bursts
system.mem_ctrls1.perBankWrBursts::7            11265                       # Per bank write bursts
system.mem_ctrls1.perBankWrBursts::8            11494                       # Per bank write bursts
system.mem_ctrls1.perBankWrBursts::9            11295                       # Per bank write bursts
system.mem_ctrls1.perBankWrBursts::10           11130                       # Per bank write bursts
system.mem_ctrls1.perBankWrBursts::11           11292                       # Per bank write bursts
system.mem_ctrls1.perBankWrBursts::12           10948                       # Per bank write bursts
system.mem_ctrls1.perBankWrBursts::13           10905                       # Per bank write bursts
system.mem_ctrls1.perBankWrBursts::14           11297                       # Per bank write bursts
system.mem_ctrls1.perBankWrBursts::15           11193                       # Per bank write bursts
system.mem_ctrls1.numRdRetry                     2147                       # Number of times read queue was full causing retry
system.mem_ctrls1.numWrRetry                     1829                       # Number of times write queue was full causing retry
system.mem_ctrls1.totGap                  92971338500                       # Total gap between requests
system.mem_ctrls1.readPktSize::0                    0                       # Read request sizes (log2)
system.mem_ctrls1.readPktSize::1                    0                       # Read request sizes (log2)
system.mem_ctrls1.readPktSize::2                    0                       # Read request sizes (log2)
system.mem_ctrls1.readPktSize::3                    0                       # Read request sizes (log2)
system.mem_ctrls1.readPktSize::4                    0                       # Read request sizes (log2)
system.mem_ctrls1.readPktSize::5                    0                       # Read request sizes (log2)
system.mem_ctrls1.readPktSize::6               323625                       # Read request sizes (log2)
system.mem_ctrls1.writePktSize::0                   0                       # Write request sizes (log2)
system.mem_ctrls1.writePktSize::1                   0                       # Write request sizes (log2)
system.mem_ctrls1.writePktSize::2                   0                       # Write request sizes (log2)
system.mem_ctrls1.writePktSize::3                   0                       # Write request sizes (log2)
system.mem_ctrls1.writePktSize::4                   0                       # Write request sizes (log2)
system.mem_ctrls1.writePktSize::5                   0                       # Write request sizes (log2)
system.mem_ctrls1.writePktSize::6              179591                       # Write request sizes (log2)
system.mem_ctrls1.rdQLenPdf::0                 150864                       # What read queue length does an incoming req see
system.mem_ctrls1.rdQLenPdf::1                  33909                       # What read queue length does an incoming req see
system.mem_ctrls1.rdQLenPdf::2                  27421                       # What read queue length does an incoming req see
system.mem_ctrls1.rdQLenPdf::3                  21168                       # What read queue length does an incoming req see
system.mem_ctrls1.rdQLenPdf::4                  16395                       # What read queue length does an incoming req see
system.mem_ctrls1.rdQLenPdf::5                  13037                       # What read queue length does an incoming req see
system.mem_ctrls1.rdQLenPdf::6                  10366                       # What read queue length does an incoming req see
system.mem_ctrls1.rdQLenPdf::7                   8554                       # What read queue length does an incoming req see
system.mem_ctrls1.rdQLenPdf::8                   6755                       # What read queue length does an incoming req see
system.mem_ctrls1.rdQLenPdf::9                   5475                       # What read queue length does an incoming req see
system.mem_ctrls1.rdQLenPdf::10                  4585                       # What read queue length does an incoming req see
system.mem_ctrls1.rdQLenPdf::11                  3594                       # What read queue length does an incoming req see
system.mem_ctrls1.rdQLenPdf::12                  2931                       # What read queue length does an incoming req see
system.mem_ctrls1.rdQLenPdf::13                  2483                       # What read queue length does an incoming req see
system.mem_ctrls1.rdQLenPdf::14                  2109                       # What read queue length does an incoming req see
system.mem_ctrls1.rdQLenPdf::15                  1811                       # What read queue length does an incoming req see
system.mem_ctrls1.rdQLenPdf::16                  1564                       # What read queue length does an incoming req see
system.mem_ctrls1.rdQLenPdf::17                  1325                       # What read queue length does an incoming req see
system.mem_ctrls1.rdQLenPdf::18                  1106                       # What read queue length does an incoming req see
system.mem_ctrls1.rdQLenPdf::19                   914                       # What read queue length does an incoming req see
system.mem_ctrls1.rdQLenPdf::20                   792                       # What read queue length does an incoming req see
system.mem_ctrls1.rdQLenPdf::21                   647                       # What read queue length does an incoming req see
system.mem_ctrls1.rdQLenPdf::22                   577                       # What read queue length does an incoming req see
system.mem_ctrls1.rdQLenPdf::23                   492                       # What read queue length does an incoming req see
system.mem_ctrls1.rdQLenPdf::24                   429                       # What read queue length does an incoming req see
system.mem_ctrls1.rdQLenPdf::25                   364                       # What read queue length does an incoming req see
system.mem_ctrls1.rdQLenPdf::26                   336                       # What read queue length does an incoming req see
system.mem_ctrls1.rdQLenPdf::27                   289                       # What read queue length does an incoming req see
system.mem_ctrls1.rdQLenPdf::28                   288                       # What read queue length does an incoming req see
system.mem_ctrls1.rdQLenPdf::29                   251                       # What read queue length does an incoming req see
system.mem_ctrls1.rdQLenPdf::30                   290                       # What read queue length does an incoming req see
system.mem_ctrls1.rdQLenPdf::31                  2468                       # What read queue length does an incoming req see
system.mem_ctrls1.wrQLenPdf::0                  31876                       # What write queue length does an incoming req see
system.mem_ctrls1.wrQLenPdf::1                  34203                       # What write queue length does an incoming req see
system.mem_ctrls1.wrQLenPdf::2                  34763                       # What write queue length does an incoming req see
system.mem_ctrls1.wrQLenPdf::3                  34683                       # What write queue length does an incoming req see
system.mem_ctrls1.wrQLenPdf::4                  34301                       # What write queue length does an incoming req see
system.mem_ctrls1.wrQLenPdf::5                   3662                       # What write queue length does an incoming req see
system.mem_ctrls1.wrQLenPdf::6                   2677                       # What write queue length does an incoming req see
system.mem_ctrls1.wrQLenPdf::7                   3426                       # What write queue length does an incoming req see
system.mem_ctrls1.bytesPerActivate::samples       150577                       # Bytes accessed per row activation
system.mem_ctrls1.bytesPerActivate::mean   213.861931                       # Bytes accessed per row activation
system.mem_ctrls1.bytesPerActivate::gmean   160.771638                       # Bytes accessed per row activation
system.mem_ctrls1.bytesPerActivate::stdev   174.797670                       # Bytes accessed per row activation
system.mem_ctrls1.bytesPerActivate::0-127        47782     31.73%     31.73% # Bytes accessed per row activation
system.mem_ctrls1.bytesPerActivate::128-255        42796     28.42%     60.15% # Bytes accessed per row activation
system.mem_ctrls1.bytesPerActivate::256-383        43678     29.01%     89.16% # Bytes accessed per row activation
system.mem_ctrls1.bytesPerActivate::384-511         6624      4.40%     93.56% # Bytes accessed per row activation
system.mem_ctrls1.bytesPerActivate::512-639         3849      2.56%     96.12% # Bytes accessed per row activation
system.mem_ctrls1.bytesPerActivate::640-767         2111      1.40%     97.52% # Bytes accessed per row activation
system.mem_ctrls1.bytesPerActivate::768-895         1382      0.92%     98.44% # Bytes accessed per row activation
system.mem_ctrls1.bytesPerActivate::896-1023          824      0.55%     98.98% # Bytes accessed per row activation
system.mem_ctrls1.bytesPerActivate::1024-1151         1531      1.02%    100.00% # Bytes accessed per row activation
system.mem_ctrls1.bytesPerActivate::total       150577                       # Bytes accessed per row activation
system.mem_ctrls1.rdPerTurnAround::samples        32132                       # Reads before turning the bus around for writes
system.mem_ctrls1.rdPerTurnAround::mean     10.069744                       # Reads before turning the bus around for writes
system.mem_ctrls1.rdPerTurnAround::stdev    19.967208                       # Reads before turning the bus around for writes
system.mem_ctrls1.rdPerTurnAround::0-127        32126     99.98%     99.98% # Reads before turning the bus around for writes
system.mem_ctrls1.rdPerTurnAround::128-255            4      0.01%     99.99% # Reads before turning the bus around for writes
system.mem_ctrls1.rdPerTurnAround::1152-1279            1      0.00%    100.00% # Reads before turning the bus around for writes
system.mem_ctrls1.rdPerTurnAround::2816-2943            1      0.00%    100.00% # Reads before turning the bus around for writes
system.mem_ctrls1.rdPerTurnAround::total        32132                       # Reads before turning the bus around for writes
system.mem_ctrls1.wrPerTurnAround::samples        32132                       # Writes before turning the bus around for reads
system.mem_ctrls1.wrPerTurnAround::mean      5.589101                       # Writes before turning the bus around for reads
system.mem_ctrls1.wrPerTurnAround::gmean     5.431638                       # Writes before turning the bus around for reads
system.mem_ctrls1.wrPerTurnAround::stdev     1.711634                       # Writes before turning the bus around for reads
system.mem_ctrls1.wrPerTurnAround::4-7          29583     92.07%     92.07% # Writes before turning the bus around for reads
system.mem_ctrls1.wrPerTurnAround::8-11          1805      5.62%     97.68% # Writes before turning the bus around for reads
system.mem_ctrls1.wrPerTurnAround::12-15          408      1.27%     98.95% # Writes before turning the bus around for reads
system.mem_ctrls1.wrPerTurnAround::16-19          336      1.05%    100.00% # Writes before turning the bus around for reads
system.mem_ctrls1.wrPerTurnAround::total        32132                       # Writes before turning the bus around for reads
system.mem_ctrls1.totQLat                 13437066528                       # Total ticks spent queuing
system.mem_ctrls1.totMemAccLat            19504360278                       # Total ticks spent from burst creation until serviced by the DRAM
system.mem_ctrls1.totBusLat                1617945000                       # Total ticks spent in databus transfers
system.mem_ctrls1.avgQLat                    41525.10                       # Average queueing delay per DRAM burst
system.mem_ctrls1.avgBusLat                   5000.00                       # Average bus latency per DRAM burst
system.mem_ctrls1.avgMemAccLat               60275.10                       # Average memory access latency per DRAM burst
system.mem_ctrls1.avgRdBW                      222.75                       # Average DRAM read bandwidth in MiByte/s
system.mem_ctrls1.avgWrBW                      123.63                       # Average achieved write bandwidth in MiByte/s
system.mem_ctrls1.avgRdBWSys                   222.78                       # Average system read bandwidth in MiByte/s
system.mem_ctrls1.avgWrBWSys                   123.63                       # Average system write bandwidth in MiByte/s
system.mem_ctrls1.peakBW                     12800.00                       # Theoretical peak bandwidth in MiByte/s
system.mem_ctrls1.busUtil                        2.71                       # Data bus utilization in percentage
system.mem_ctrls1.busUtilRead                    1.74                       # Data bus utilization in percentage for reads
system.mem_ctrls1.busUtilWrite                   0.97                       # Data bus utilization in percentage for writes
system.mem_ctrls1.avgRdQLen                      1.21                       # Average read queue length when enqueuing
system.mem_ctrls1.avgWrQLen                      2.97                       # Average write queue length when enqueuing
system.mem_ctrls1.readRowHits                  243046                       # Number of row buffer hits during reads
system.mem_ctrls1.writeRowHits                 109548                       # Number of row buffer hits during writes
system.mem_ctrls1.readRowHitRate                75.11                       # Row buffer hit rate for reads
system.mem_ctrls1.writeRowHitRate               61.00                       # Row buffer hit rate for writes
system.mem_ctrls1.avgGap                    184754.34                       # Average gap between requests
system.mem_ctrls1.pageHitRate                   70.07                       # Row buffer hit rate, read and write combined
system.mem_ctrls1.memoryStateTime::IDLE   15391497750                       # Time in different power states
system.mem_ctrls1.memoryStateTime::REF     3104400000                       # Time in different power states
system.mem_ctrls1.memoryStateTime::PRE_PDN            0                       # Time in different power states
system.mem_ctrls1.memoryStateTime::ACT    74472872250                       # Time in different power states
system.mem_ctrls1.memoryStateTime::ACT_PDN            0                       # Time in different power states
system.mem_ctrls1.actEnergy::0              574749000                       # Energy for activate commands per rank (pJ)
system.mem_ctrls1.actEnergy::1              563598000                       # Energy for activate commands per rank (pJ)
system.mem_ctrls1.preEnergy::0              313603125                       # Energy for precharge commands per rank (pJ)
system.mem_ctrls1.preEnergy::1              307518750                       # Energy for precharge commands per rank (pJ)
system.mem_ctrls1.readEnergy::0            1267718400                       # Energy for read commands per rank (pJ)
system.mem_ctrls1.readEnergy::1            1256143200                       # Energy for read commands per rank (pJ)
system.mem_ctrls1.writeEnergy::0            583426800                       # Energy for write commands per rank (pJ)
system.mem_ctrls1.writeEnergy::1            580309920                       # Energy for write commands per rank (pJ)
system.mem_ctrls1.refreshEnergy::0         6072206400                       # Energy for refresh commands per rank (pJ)
system.mem_ctrls1.refreshEnergy::1         6072206400                       # Energy for refresh commands per rank (pJ)
system.mem_ctrls1.actBackEnergy::0        38140550505                       # Energy for active background per rank (pJ)
system.mem_ctrls1.actBackEnergy::1        37180540260                       # Energy for active background per rank (pJ)
system.mem_ctrls1.preBackEnergy::0        22324227750                       # Energy for precharge background per rank (pJ)
system.mem_ctrls1.preBackEnergy::1        23166342000                       # Energy for precharge background per rank (pJ)
system.mem_ctrls1.totalEnergy::0          69276481980                       # Total energy per rank (pJ)
system.mem_ctrls1.totalEnergy::1          69126658530                       # Total energy per rank (pJ)
system.mem_ctrls1.averagePower::0          745.164128                       # Core power per rank (mW)
system.mem_ctrls1.averagePower::1          743.552570                       # Core power per rank (mW)
system.mem_ctrls2.bytes_read::ruby.dir_cntrl2     20717376                       # Number of bytes read from this memory
system.mem_ctrls2.bytes_read::total          20717376                       # Number of bytes read from this memory
system.mem_ctrls2.bytes_written::ruby.dir_cntrl2     11492416                       # Number of bytes written to this memory
system.mem_ctrls2.bytes_written::total       11492416                       # Number of bytes written to this memory
system.mem_ctrls2.num_reads::ruby.dir_cntrl2       323709                       # Number of read requests responded to by this memory
system.mem_ctrls2.num_reads::total             323709                       # Number of read requests responded to by this memory
system.mem_ctrls2.num_writes::ruby.dir_cntrl2       179569                       # Number of write requests responded to by this memory
system.mem_ctrls2.num_writes::total            179569                       # Number of write requests responded to by this memory
system.mem_ctrls2.bw_read::ruby.dir_cntrl2    222834170                       # Total read bandwidth from this memory (bytes/s)
system.mem_ctrls2.bw_read::total            222834170                       # Total read bandwidth from this memory (bytes/s)
system.mem_ctrls2.bw_write::ruby.dir_cntrl2    123611358                       # Write bandwidth from this memory (bytes/s)
system.mem_ctrls2.bw_write::total           123611358                       # Write bandwidth from this memory (bytes/s)
system.mem_ctrls2.bw_total::ruby.dir_cntrl2    346445528                       # Total bandwidth to/from this memory (bytes/s)
system.mem_ctrls2.bw_total::total           346445528                       # Total bandwidth to/from this memory (bytes/s)
system.mem_ctrls2.readReqs                     323709                       # Number of read requests accepted
system.mem_ctrls2.writeReqs                    179569                       # Number of write requests accepted
system.mem_ctrls2.readBursts                   323709                       # Number of DRAM read bursts, including those serviced by the write queue
system.mem_ctrls2.writeBursts                  179569                       # Number of DRAM write bursts, including those merged in the write queue
system.mem_ctrls2.bytesReadDRAM              20716352                       # Total number of bytes read from DRAM
system.mem_ctrls2.bytesReadWrQ                   1024                       # Total number of bytes read from write queue
system.mem_ctrls2.bytesWritten               11492416                       # Total number of bytes written to DRAM
system.mem_ctrls2.bytesReadSys               20717376                       # Total read bytes from the system interface side
system.mem_ctrls2.bytesWrittenSys            11492416                       # Total written bytes from the system interface side
system.mem_ctrls2.servicedByWrQ                    16                       # Number of DRAM read bursts serviced by the write queue
system.mem_ctrls2.mergedWrBursts                    0                       # Number of DRAM write bursts merged with an existing one
system.mem_ctrls2.neitherReadNorWriteReqs            0                       # Number of requests that are neither read nor write
system.mem_ctrls2.perBankRdBursts::0            19974                       # Per bank write bursts
system.mem_ctrls2.perBankRdBursts::1            20598                       # Per bank write bursts
system.mem_ctrls2.perBankRdBursts::2            20155                       # Per bank write bursts
system.mem_ctrls2.perBankRdBursts::3            20490                       # Per bank write bursts
system.mem_ctrls2.perBankRdBursts::4            20146                       # Per bank write bursts
system.mem_ctrls2.perBankRdBursts::5            20642                       # Per bank write bursts
system.mem_ctrls2.perBankRdBursts::6            20229                       # Per bank write bursts
system.mem_ctrls2.perBankRdBursts::7            20343                       # Per bank write bursts
system.mem_ctrls2.perBankRdBursts::8            20249                       # Per bank write bursts
system.mem_ctrls2.perBankRdBursts::9            20483                       # Per bank write bursts
system.mem_ctrls2.perBankRdBursts::10           20198                       # Per bank write bursts
system.mem_ctrls2.perBankRdBursts::11           20594                       # Per bank write bursts
system.mem_ctrls2.perBankRdBursts::12           19873                       # Per bank write bursts
system.mem_ctrls2.perBankRdBursts::13           19703                       # Per bank write bursts
system.mem_ctrls2.perBankRdBursts::14           19959                       # Per bank write bursts
system.mem_ctrls2.perBankRdBursts::15           20057                       # Per bank write bursts
system.mem_ctrls2.perBankWrBursts::0            11109                       # Per bank write bursts
system.mem_ctrls2.perBankWrBursts::1            11262                       # Per bank write bursts
system.mem_ctrls2.perBankWrBursts::2            11259                       # Per bank write bursts
system.mem_ctrls2.perBankWrBursts::3            11263                       # Per bank write bursts
system.mem_ctrls2.perBankWrBursts::4            11209                       # Per bank write bursts
system.mem_ctrls2.perBankWrBursts::5            11511                       # Per bank write bursts
system.mem_ctrls2.perBankWrBursts::6            11154                       # Per bank write bursts
system.mem_ctrls2.perBankWrBursts::7            11269                       # Per bank write bursts
system.mem_ctrls2.perBankWrBursts::8            11457                       # Per bank write bursts
system.mem_ctrls2.perBankWrBursts::9            11300                       # Per bank write bursts
system.mem_ctrls2.perBankWrBursts::10           11113                       # Per bank write bursts
system.mem_ctrls2.perBankWrBursts::11           11310                       # Per bank write bursts
system.mem_ctrls2.perBankWrBursts::12           10961                       # Per bank write bursts
system.mem_ctrls2.perBankWrBursts::13           10895                       # Per bank write bursts
system.mem_ctrls2.perBankWrBursts::14           11293                       # Per bank write bursts
system.mem_ctrls2.perBankWrBursts::15           11204                       # Per bank write bursts
system.mem_ctrls2.numRdRetry                     2248                       # Number of times read queue was full causing retry
system.mem_ctrls2.numWrRetry                     2024                       # Number of times write queue was full causing retry
system.mem_ctrls2.totGap                  92972027000                       # Total gap between requests
system.mem_ctrls2.readPktSize::0                    0                       # Read request sizes (log2)
system.mem_ctrls2.readPktSize::1                    0                       # Read request sizes (log2)
system.mem_ctrls2.readPktSize::2                    0                       # Read request sizes (log2)
system.mem_ctrls2.readPktSize::3                    0                       # Read request sizes (log2)
system.mem_ctrls2.readPktSize::4                    0                       # Read request sizes (log2)
system.mem_ctrls2.readPktSize::5                    0                       # Read request sizes (log2)
system.mem_ctrls2.readPktSize::6               323709                       # Read request sizes (log2)
system.mem_ctrls2.writePktSize::0                   0                       # Write request sizes (log2)
system.mem_ctrls2.writePktSize::1                   0                       # Write request sizes (log2)
system.mem_ctrls2.writePktSize::2                   0                       # Write request sizes (log2)
system.mem_ctrls2.writePktSize::3                   0                       # Write request sizes (log2)
system.mem_ctrls2.writePktSize::4                   0                       # Write request sizes (log2)
system.mem_ctrls2.writePktSize::5                   0                       # Write request sizes (log2)
system.mem_ctrls2.writePktSize::6              179569                       # Write request sizes (log2)
system.mem_ctrls2.rdQLenPdf::0                 151261                       # What read queue length does an incoming req see
system.mem_ctrls2.rdQLenPdf::1                  34012                       # What read queue length does an incoming req see
system.mem_ctrls2.rdQLenPdf::2                  27481                       # What read queue length does an incoming req see
system.mem_ctrls2.rdQLenPdf::3                  21319                       # What read queue length does an incoming req see
system.mem_ctrls2.rdQLenPdf::4                  16516                       # What read queue length does an incoming req see
system.mem_ctrls2.rdQLenPdf::5                  12985                       # What read queue length does an incoming req see
system.mem_ctrls2.rdQLenPdf::6                  10128                       # What read queue length does an incoming req see
system.mem_ctrls2.rdQLenPdf::7                   8114                       # What read queue length does an incoming req see
system.mem_ctrls2.rdQLenPdf::8                   6586                       # What read queue length does an incoming req see
system.mem_ctrls2.rdQLenPdf::9                   5333                       # What read queue length does an incoming req see
system.mem_ctrls2.rdQLenPdf::10                  4409                       # What read queue length does an incoming req see
system.mem_ctrls2.rdQLenPdf::11                  3561                       # What read queue length does an incoming req see
system.mem_ctrls2.rdQLenPdf::12                  2986                       # What read queue length does an incoming req see
system.mem_ctrls2.rdQLenPdf::13                  2533                       # What read queue length does an incoming req see
system.mem_ctrls2.rdQLenPdf::14                  2087                       # What read queue length does an incoming req see
system.mem_ctrls2.rdQLenPdf::15                  1777                       # What read queue length does an incoming req see
system.mem_ctrls2.rdQLenPdf::16                  1472                       # What read queue length does an incoming req see
system.mem_ctrls2.rdQLenPdf::17                  1304                       # What read queue length does an incoming req see
system.mem_ctrls2.rdQLenPdf::18                  1100                       # What read queue length does an incoming req see
system.mem_ctrls2.rdQLenPdf::19                   965                       # What read queue length does an incoming req see
system.mem_ctrls2.rdQLenPdf::20                   848                       # What read queue length does an incoming req see
system.mem_ctrls2.rdQLenPdf::21                   751                       # What read queue length does an incoming req see
system.mem_ctrls2.rdQLenPdf::22                   614                       # What read queue length does an incoming req see
system.mem_ctrls2.rdQLenPdf::23                   556                       # What read queue length does an incoming req see
system.mem_ctrls2.rdQLenPdf::24                   506                       # What read queue length does an incoming req see
system.mem_ctrls2.rdQLenPdf::25                   419                       # What read queue length does an incoming req see
system.mem_ctrls2.rdQLenPdf::26                   374                       # What read queue length does an incoming req see
system.mem_ctrls2.rdQLenPdf::27                   335                       # What read queue length does an incoming req see
system.mem_ctrls2.rdQLenPdf::28                   258                       # What read queue length does an incoming req see
system.mem_ctrls2.rdQLenPdf::29                   261                       # What read queue length does an incoming req see
system.mem_ctrls2.rdQLenPdf::30                   252                       # What read queue length does an incoming req see
system.mem_ctrls2.rdQLenPdf::31                  2590                       # What read queue length does an incoming req see
system.mem_ctrls2.wrQLenPdf::0                  31868                       # What write queue length does an incoming req see
system.mem_ctrls2.wrQLenPdf::1                  34046                       # What write queue length does an incoming req see
system.mem_ctrls2.wrQLenPdf::2                  34706                       # What write queue length does an incoming req see
system.mem_ctrls2.wrQLenPdf::3                  34612                       # What write queue length does an incoming req see
system.mem_ctrls2.wrQLenPdf::4                  34348                       # What write queue length does an incoming req see
system.mem_ctrls2.wrQLenPdf::5                   3713                       # What write queue length does an incoming req see
system.mem_ctrls2.wrQLenPdf::6                   2665                       # What write queue length does an incoming req see
system.mem_ctrls2.wrQLenPdf::7                   3611                       # What write queue length does an incoming req see
system.mem_ctrls2.bytesPerActivate::samples       150155                       # Bytes accessed per row activation
system.mem_ctrls2.bytesPerActivate::mean   214.499630                       # Bytes accessed per row activation
system.mem_ctrls2.bytesPerActivate::gmean   161.347328                       # Bytes accessed per row activation
system.mem_ctrls2.bytesPerActivate::stdev   174.986719                       # Bytes accessed per row activation
system.mem_ctrls2.bytesPerActivate::0-127        47385     31.56%     31.56% # Bytes accessed per row activation
system.mem_ctrls2.bytesPerActivate::128-255        42498     28.30%     59.86% # Bytes accessed per row activation
system.mem_ctrls2.bytesPerActivate::256-383        43863     29.21%     89.07% # Bytes accessed per row activation
system.mem_ctrls2.bytesPerActivate::384-511         6683      4.45%     93.52% # Bytes accessed per row activation
system.mem_ctrls2.bytesPerActivate::512-639         3930      2.62%     96.14% # Bytes accessed per row activation
system.mem_ctrls2.bytesPerActivate::640-767         2093      1.39%     97.53% # Bytes accessed per row activation
system.mem_ctrls2.bytesPerActivate::768-895         1256      0.84%     98.37% # Bytes accessed per row activation
system.mem_ctrls2.bytesPerActivate::896-1023          889      0.59%     98.96% # Bytes accessed per row activation
system.mem_ctrls2.bytesPerActivate::1024-1151         1558      1.04%    100.00% # Bytes accessed per row activation
system.mem_ctrls2.bytesPerActivate::total       150155                       # Bytes accessed per row activation
system.mem_ctrls2.rdPerTurnAround::samples        32132                       # Reads before turning the bus around for writes
system.mem_ctrls2.rdPerTurnAround::mean     10.073696                       # Reads before turning the bus around for writes
system.mem_ctrls2.rdPerTurnAround::stdev    20.030231                       # Reads before turning the bus around for writes
system.mem_ctrls2.rdPerTurnAround::0-127        32127     99.98%     99.98% # Reads before turning the bus around for writes
system.mem_ctrls2.rdPerTurnAround::128-255            3      0.01%     99.99% # Reads before turning the bus around for writes
system.mem_ctrls2.rdPerTurnAround::1152-1279            1      0.00%    100.00% # Reads before turning the bus around for writes
system.mem_ctrls2.rdPerTurnAround::2816-2943            1      0.00%    100.00% # Reads before turning the bus around for writes
system.mem_ctrls2.rdPerTurnAround::total        32132                       # Reads before turning the bus around for writes
system.mem_ctrls2.wrPerTurnAround::samples        32132                       # Writes before turning the bus around for reads
system.mem_ctrls2.wrPerTurnAround::mean      5.588479                       # Writes before turning the bus around for reads
system.mem_ctrls2.wrPerTurnAround::gmean     5.429632                       # Writes before turning the bus around for reads
system.mem_ctrls2.wrPerTurnAround::stdev     1.720462                       # Writes before turning the bus around for reads
system.mem_ctrls2.wrPerTurnAround::4-7          29618     92.18%     92.18% # Writes before turning the bus around for reads
system.mem_ctrls2.wrPerTurnAround::8-11          1761      5.48%     97.66% # Writes before turning the bus around for reads
system.mem_ctrls2.wrPerTurnAround::12-15          432      1.34%     99.00% # Writes before turning the bus around for reads
system.mem_ctrls2.wrPerTurnAround::16-19          321      1.00%    100.00% # Writes before turning the bus around for reads
system.mem_ctrls2.wrPerTurnAround::total        32132                       # Writes before turning the bus around for reads
system.mem_ctrls2.totQLat                 13412743007                       # Total ticks spent queuing
system.mem_ctrls2.totMemAccLat            19481986757                       # Total ticks spent from burst creation until serviced by the DRAM
system.mem_ctrls2.totBusLat                1618465000                       # Total ticks spent in databus transfers
system.mem_ctrls2.avgQLat                    41436.62                       # Average queueing delay per DRAM burst
system.mem_ctrls2.avgBusLat                   5000.00                       # Average bus latency per DRAM burst
system.mem_ctrls2.avgMemAccLat               60186.62                       # Average memory access latency per DRAM burst
system.mem_ctrls2.avgRdBW                      222.82                       # Average DRAM read bandwidth in MiByte/s
system.mem_ctrls2.avgWrBW                      123.61                       # Average achieved write bandwidth in MiByte/s
system.mem_ctrls2.avgRdBWSys                   222.83                       # Average system read bandwidth in MiByte/s
system.mem_ctrls2.avgWrBWSys                   123.61                       # Average system write bandwidth in MiByte/s
system.mem_ctrls2.peakBW                     12800.00                       # Theoretical peak bandwidth in MiByte/s
system.mem_ctrls2.busUtil                        2.71                       # Data bus utilization in percentage
system.mem_ctrls2.busUtilRead                    1.74                       # Data bus utilization in percentage for reads
system.mem_ctrls2.busUtilWrite                   0.97                       # Data bus utilization in percentage for writes
system.mem_ctrls2.avgRdQLen                      1.21                       # Average read queue length when enqueuing
system.mem_ctrls2.avgWrQLen                      2.97                       # Average write queue length when enqueuing
system.mem_ctrls2.readRowHits                  243237                       # Number of row buffer hits during reads
system.mem_ctrls2.writeRowHits                 109862                       # Number of row buffer hits during writes
system.mem_ctrls2.readRowHitRate                75.14                       # Row buffer hit rate for reads
system.mem_ctrls2.writeRowHitRate               61.18                       # Row buffer hit rate for writes
system.mem_ctrls2.avgGap                    184732.94                       # Average gap between requests
system.mem_ctrls2.pageHitRate                   70.16                       # Row buffer hit rate, read and write combined
system.mem_ctrls2.memoryStateTime::IDLE   15436568750                       # Time in different power states
system.mem_ctrls2.memoryStateTime::REF     3104400000                       # Time in different power states
system.mem_ctrls2.memoryStateTime::PRE_PDN            0                       # Time in different power states
system.mem_ctrls2.memoryStateTime::ACT    74427685750                       # Time in different power states
system.mem_ctrls2.memoryStateTime::ACT_PDN            0                       # Time in different power states
system.mem_ctrls2.actEnergy::0              573909840                       # Energy for activate commands per rank (pJ)
system.mem_ctrls2.actEnergy::1              561224160                       # Energy for activate commands per rank (pJ)
system.mem_ctrls2.preEnergy::0              313145250                       # Energy for precharge commands per rank (pJ)
system.mem_ctrls2.preEnergy::1              306223500                       # Energy for precharge commands per rank (pJ)
system.mem_ctrls2.readEnergy::0            1268030400                       # Energy for read commands per rank (pJ)
system.mem_ctrls2.readEnergy::1            1256681400                       # Energy for read commands per rank (pJ)
system.mem_ctrls2.writeEnergy::0            583413840                       # Energy for write commands per rank (pJ)
system.mem_ctrls2.writeEnergy::1            580160880                       # Energy for write commands per rank (pJ)
system.mem_ctrls2.refreshEnergy::0         6072206400                       # Energy for refresh commands per rank (pJ)
system.mem_ctrls2.refreshEnergy::1         6072206400                       # Energy for refresh commands per rank (pJ)
system.mem_ctrls2.actBackEnergy::0        38025580365                       # Energy for active background per rank (pJ)
system.mem_ctrls2.actBackEnergy::1        37113915240                       # Energy for active background per rank (pJ)
system.mem_ctrls2.preBackEnergy::0        22425078750                       # Energy for precharge background per rank (pJ)
system.mem_ctrls2.preBackEnergy::1        23224785000                       # Energy for precharge background per rank (pJ)
system.mem_ctrls2.totalEnergy::0          69261364845                       # Total energy per rank (pJ)
system.mem_ctrls2.totalEnergy::1          69115196580                       # Total energy per rank (pJ)
system.mem_ctrls2.averagePower::0          745.001522                       # Core power per rank (mW)
system.mem_ctrls2.averagePower::1          743.429281                       # Core power per rank (mW)
system.mem_ctrls3.bytes_read::ruby.dir_cntrl3     20692160                       # Number of bytes read from this memory
system.mem_ctrls3.bytes_read::total          20692160                       # Number of bytes read from this memory
system.mem_ctrls3.bytes_written::ruby.dir_cntrl3     11491456                       # Number of bytes written to this memory
system.mem_ctrls3.bytes_written::total       11491456                       # Number of bytes written to this memory
system.mem_ctrls3.num_reads::ruby.dir_cntrl3       323315                       # Number of read requests responded to by this memory
system.mem_ctrls3.num_reads::total             323315                       # Number of read requests responded to by this memory
system.mem_ctrls3.num_writes::ruby.dir_cntrl3       179554                       # Number of write requests responded to by this memory
system.mem_ctrls3.num_writes::total            179554                       # Number of write requests responded to by this memory
system.mem_ctrls3.bw_read::ruby.dir_cntrl3    222562949                       # Total read bandwidth from this memory (bytes/s)
system.mem_ctrls3.bw_read::total            222562949                       # Total read bandwidth from this memory (bytes/s)
system.mem_ctrls3.bw_write::ruby.dir_cntrl3    123601032                       # Write bandwidth from this memory (bytes/s)
system.mem_ctrls3.bw_write::total           123601032                       # Write bandwidth from this memory (bytes/s)
system.mem_ctrls3.bw_total::ruby.dir_cntrl3    346163981                       # Total bandwidth to/from this memory (bytes/s)
system.mem_ctrls3.bw_total::total           346163981                       # Total bandwidth to/from this memory (bytes/s)
system.mem_ctrls3.readReqs                     323316                       # Number of read requests accepted
system.mem_ctrls3.writeReqs                    179554                       # Number of write requests accepted
system.mem_ctrls3.readBursts                   323316                       # Number of DRAM read bursts, including those serviced by the write queue
system.mem_ctrls3.writeBursts                  179554                       # Number of DRAM write bursts, including those merged in the write queue
system.mem_ctrls3.bytesReadDRAM              20691520                       # Total number of bytes read from DRAM
system.mem_ctrls3.bytesReadWrQ                    704                       # Total number of bytes read from write queue
system.mem_ctrls3.bytesWritten               11491200                       # Total number of bytes written to DRAM
system.mem_ctrls3.bytesReadSys               20692224                       # Total read bytes from the system interface side
system.mem_ctrls3.bytesWrittenSys            11491456                       # Total written bytes from the system interface side
system.mem_ctrls3.servicedByWrQ                    11                       # Number of DRAM read bursts serviced by the write queue
system.mem_ctrls3.mergedWrBursts                    0                       # Number of DRAM write bursts merged with an existing one
system.mem_ctrls3.neitherReadNorWriteReqs            0                       # Number of requests that are neither read nor write
system.mem_ctrls3.perBankRdBursts::0            19952                       # Per bank write bursts
system.mem_ctrls3.perBankRdBursts::1            20574                       # Per bank write bursts
system.mem_ctrls3.perBankRdBursts::2            20045                       # Per bank write bursts
system.mem_ctrls3.perBankRdBursts::3            20463                       # Per bank write bursts
system.mem_ctrls3.perBankRdBursts::4            20106                       # Per bank write bursts
system.mem_ctrls3.perBankRdBursts::5            20590                       # Per bank write bursts
system.mem_ctrls3.perBankRdBursts::6            20233                       # Per bank write bursts
system.mem_ctrls3.perBankRdBursts::7            20334                       # Per bank write bursts
system.mem_ctrls3.perBankRdBursts::8            20238                       # Per bank write bursts
system.mem_ctrls3.perBankRdBursts::9            20456                       # Per bank write bursts
system.mem_ctrls3.perBankRdBursts::10           20253                       # Per bank write bursts
system.mem_ctrls3.perBankRdBursts::11           20503                       # Per bank write bursts
system.mem_ctrls3.perBankRdBursts::12           19794                       # Per bank write bursts
system.mem_ctrls3.perBankRdBursts::13           19718                       # Per bank write bursts
system.mem_ctrls3.perBankRdBursts::14           19981                       # Per bank write bursts
system.mem_ctrls3.perBankRdBursts::15           20065                       # Per bank write bursts
system.mem_ctrls3.perBankWrBursts::0            11104                       # Per bank write bursts
system.mem_ctrls3.perBankWrBursts::1            11258                       # Per bank write bursts
system.mem_ctrls3.perBankWrBursts::2            11265                       # Per bank write bursts
system.mem_ctrls3.perBankWrBursts::3            11252                       # Per bank write bursts
system.mem_ctrls3.perBankWrBursts::4            11209                       # Per bank write bursts
system.mem_ctrls3.perBankWrBursts::5            11511                       # Per bank write bursts
system.mem_ctrls3.perBankWrBursts::6            11143                       # Per bank write bursts
system.mem_ctrls3.perBankWrBursts::7            11254                       # Per bank write bursts
system.mem_ctrls3.perBankWrBursts::8            11454                       # Per bank write bursts
system.mem_ctrls3.perBankWrBursts::9            11314                       # Per bank write bursts
system.mem_ctrls3.perBankWrBursts::10           11114                       # Per bank write bursts
system.mem_ctrls3.perBankWrBursts::11           11316                       # Per bank write bursts
system.mem_ctrls3.perBankWrBursts::12           10952                       # Per bank write bursts
system.mem_ctrls3.perBankWrBursts::13           10911                       # Per bank write bursts
system.mem_ctrls3.perBankWrBursts::14           11295                       # Per bank write bursts
system.mem_ctrls3.perBankWrBursts::15           11198                       # Per bank write bursts
system.mem_ctrls3.numRdRetry                     2494                       # Number of times read queue was full causing retry
system.mem_ctrls3.numWrRetry                     1977                       # Number of times write queue was full causing retry
system.mem_ctrls3.totGap                  92971427000                       # Total gap between requests
system.mem_ctrls3.readPktSize::0                    0                       # Read request sizes (log2)
system.mem_ctrls3.readPktSize::1                    0                       # Read request sizes (log2)
system.mem_ctrls3.readPktSize::2                    0                       # Read request sizes (log2)
system.mem_ctrls3.readPktSize::3                    0                       # Read request sizes (log2)
system.mem_ctrls3.readPktSize::4                    0                       # Read request sizes (log2)
system.mem_ctrls3.readPktSize::5                    0                       # Read request sizes (log2)
system.mem_ctrls3.readPktSize::6               323316                       # Read request sizes (log2)
system.mem_ctrls3.writePktSize::0                   0                       # Write request sizes (log2)
system.mem_ctrls3.writePktSize::1                   0                       # Write request sizes (log2)
system.mem_ctrls3.writePktSize::2                   0                       # Write request sizes (log2)
system.mem_ctrls3.writePktSize::3                   0                       # Write request sizes (log2)
system.mem_ctrls3.writePktSize::4                   0                       # Write request sizes (log2)
system.mem_ctrls3.writePktSize::5                   0                       # Write request sizes (log2)
system.mem_ctrls3.writePktSize::6              179554                       # Write request sizes (log2)
system.mem_ctrls3.rdQLenPdf::0                 151294                       # What read queue length does an incoming req see
system.mem_ctrls3.rdQLenPdf::1                  34417                       # What read queue length does an incoming req see
system.mem_ctrls3.rdQLenPdf::2                  27353                       # What read queue length does an incoming req see
system.mem_ctrls3.rdQLenPdf::3                  21204                       # What read queue length does an incoming req see
system.mem_ctrls3.rdQLenPdf::4                  16507                       # What read queue length does an incoming req see
system.mem_ctrls3.rdQLenPdf::5                  12882                       # What read queue length does an incoming req see
system.mem_ctrls3.rdQLenPdf::6                  10363                       # What read queue length does an incoming req see
system.mem_ctrls3.rdQLenPdf::7                   7951                       # What read queue length does an incoming req see
system.mem_ctrls3.rdQLenPdf::8                   6557                       # What read queue length does an incoming req see
system.mem_ctrls3.rdQLenPdf::9                   5386                       # What read queue length does an incoming req see
system.mem_ctrls3.rdQLenPdf::10                  4276                       # What read queue length does an incoming req see
system.mem_ctrls3.rdQLenPdf::11                  3552                       # What read queue length does an incoming req see
system.mem_ctrls3.rdQLenPdf::12                  2937                       # What read queue length does an incoming req see
system.mem_ctrls3.rdQLenPdf::13                  2318                       # What read queue length does an incoming req see
system.mem_ctrls3.rdQLenPdf::14                  2010                       # What read queue length does an incoming req see
system.mem_ctrls3.rdQLenPdf::15                  1676                       # What read queue length does an incoming req see
system.mem_ctrls3.rdQLenPdf::16                  1419                       # What read queue length does an incoming req see
system.mem_ctrls3.rdQLenPdf::17                  1223                       # What read queue length does an incoming req see
system.mem_ctrls3.rdQLenPdf::18                  1068                       # What read queue length does an incoming req see
system.mem_ctrls3.rdQLenPdf::19                   969                       # What read queue length does an incoming req see
system.mem_ctrls3.rdQLenPdf::20                   816                       # What read queue length does an incoming req see
system.mem_ctrls3.rdQLenPdf::21                   674                       # What read queue length does an incoming req see
system.mem_ctrls3.rdQLenPdf::22                   588                       # What read queue length does an incoming req see
system.mem_ctrls3.rdQLenPdf::23                   498                       # What read queue length does an incoming req see
system.mem_ctrls3.rdQLenPdf::24                   416                       # What read queue length does an incoming req see
[...]
system.ruby.L2Cache_Controller.MT_MB.L1_PUTX::total           82                      
system.ruby.L2Cache_Controller.MT_MB.L1_PUTX_old |           0      0.00%      0.00% |           0      0.00%      0.00% |           0      0.00%      0.00% |           0      0.00%      0.00% |           0      0.00%      0.00% |           0      0.00%      0.00% |           0      0.00%      0.00% |           0      0.00%      0.00% |           0      0.00%      0.00% |           0      0.00%      0.00% |           0      0.00%      0.00% |           0      0.00%      0.00% |           0      0.00%      0.00% |           0      0.00%      0.00% |           0      0.00%      0.00% |           0      0.00%      0.00% |           0      0.00%      0.00% |           0      0.00%      0.00% |           0      0.00%      0.00% |           0      0.00%      0.00% |           0      0.00%      0.00% |           0      0.00%      0.00% |           0      0.00%      0.00% |           1    100.00%    100.00% |           0      0.00%    100.00% |           0      0.00%    100.00% |           0      0.00%    100.00% |           0      0.00%    100.00% |           0      0.00%    100.00% |           0      0.00%    100.00% |           0      0.00%    100.00% |           0      0.00%    100.00%
system.ruby.L2Cache_Controller.MT_MB.L1_PUTX_old::total            1                      
system.ruby.L2Cache_Controller.MT_MB.Exclusive_Unblock |      152685      5.69%      5.69% |       82818      3.08%      8.77% |       81537      3.04%     11.81% |       82477      3.07%     14.88% |       81600      3.04%     17.92% |       81105      3.02%     20.94% |       81128      3.02%     23.96% |       80572      3.00%     26.96% |       80624      3.00%     29.96% |       81841      3.05%     33.01% |       83207      3.10%     36.11% |       82449      3.07%     39.18% |       81936      3.05%     42.23% |       80790      3.01%     45.24% |       80262      2.99%     48.23% |       80552      3.00%     51.23% |       81386      3.03%     54.26% |       80923      3.01%     57.28% |       81639      3.04%     60.32% |       81581      3.04%     63.36% |       81372      3.03%     66.39% |       83922      3.13%     69.51% |       81853      3.05%     72.56% |       81261      3.03%     75.59% |       81366      3.03%     78.62% |       81667      3.04%     81.66% |       81288      3.03%     84.69% |       80797      3.01%     87.70% |       81202      3.02%     90.72% |       80624      3.00%     93.72% |       83476      3.11%     96.83% |       85062      3.17%    100.00%
system.ruby.L2Cache_Controller.MT_MB.Exclusive_Unblock::total      2685002                      
system.ruby.L2Cache_Controller.MT_IIB.L1_GETS |           0      0.00%      0.00% |           0      0.00%      0.00% |           0      0.00%      0.00% |           0      0.00%      0.00% |           0      0.00%      0.00% |           0      0.00%      0.00% |           0      0.00%      0.00% |           0      0.00%      0.00% |           0      0.00%      0.00% |           0      0.00%      0.00% |           0      0.00%      0.00% |           0      0.00%      0.00% |           0      0.00%      0.00% |           0      0.00%      0.00% |           0      0.00%      0.00% |           0      0.00%      0.00% |           0      0.00%      0.00% |           0      0.00%      0.00% |           0      0.00%      0.00% |           0      0.00%      0.00% |           1    100.00%    100.00% |           0      0.00%    100.00% |           0      0.00%    100.00% |           0      0.00%    100.00% |           0      0.00%    100.00% |           0      0.00%    100.00% |           0      0.00%    100.00% |           0      0.00%    100.00% |           0      0.00%    100.00% |           0      0.00%    100.00% |           0      0.00%    100.00% |           0      0.00%    100.00%
system.ruby.L2Cache_Controller.MT_IIB.L1_GETS::total            1                      
system.ruby.L2Cache_Controller.MT_IIB.L1_PUTX |          10      2.69%      2.69% |           7      1.88%      4.57% |           3      0.81%      5.38% |           8      2.15%      7.53% |           7      1.88%      9.41% |          14      3.76%     13.17% |          11      2.96%     16.13% |           7      1.88%     18.01% |          15      4.03%     22.04% |          16      4.30%     26.34% |          13      3.49%     29.84% |          12      3.23%     33.06% |          12      3.23%     36.29% |          20      5.38%     41.67% |          16      4.30%     45.97% |          16      4.30%     50.27% |          15      4.03%     54.30% |           6      1.61%     55.91% |          15      4.03%     59.95% |          11      2.96%     62.90% |          10      2.69%     65.59% |           9      2.42%     68.01% |           9      2.42%     70.43% |          23      6.18%     76.61% |          17      4.57%     81.18% |           8      2.15%     83.33% |           6      1.61%     84.95% |          16      4.30%     89.25% |           8      2.15%     91.40% |          13      3.49%     94.89% |           6      1.61%     96.51% |          13      3.49%    100.00%
system.ruby.L2Cache_Controller.MT_IIB.L1_PUTX::total          372                      
system.ruby.L2Cache_Controller.MT_IIB.WB_Data |           0      0.00%      0.00% |           0      0.00%      0.00% |           0      0.00%      0.00% |           0      0.00%      0.00% |           0      0.00%      0.00% |           0      0.00%      0.00% |           0      0.00%      0.00% |           0      0.00%      0.00% |           0      0.00%      0.00% |           0      0.00%      0.00% |           0      0.00%      0.00% |           0      0.00%      0.00% |           0      0.00%      0.00% |           0      0.00%      0.00% |           0      0.00%      0.00% |           0      0.00%      0.00% |           0      0.00%      0.00% |           0      0.00%      0.00% |           0      0.00%      0.00% |           0      0.00%      0.00% |           0      0.00%      0.00% |           0      0.00%      0.00% |           0      0.00%      0.00% |           0      0.00%      0.00% |           0      0.00%      0.00% |           2    100.00%    100.00% |           0      0.00%    100.00% |           0      0.00%    100.00% |           0      0.00%    100.00% |           0      0.00%    100.00% |           0      0.00%    100.00% |           0      0.00%    100.00%
system.ruby.L2Cache_Controller.MT_IIB.WB_Data::total            2                      
system.ruby.L2Cache_Controller.MT_IIB.WB_Data_clean |        1817      3.20%      3.20% |        1728      3.05%      6.25% |        1713      3.02%      9.27% |        1710      3.02%     12.29% |        1691      2.98%     15.27% |        1747      3.08%     18.35% |        1816      3.20%     21.55% |        1820      3.21%     24.76% |        1809      3.19%     27.95% |        1775      3.13%     31.08% |        1795      3.17%     34.25% |        1760      3.10%     37.35% |        1769      3.12%     40.47% |        1751      3.09%     43.56% |        1815      3.20%     46.76% |        1827      3.22%     49.98% |        1814      3.20%     53.18% |        1813      3.20%     56.38% |        1827      3.22%     59.60% |        1833      3.23%     62.83% |        1759      3.10%     65.94% |        1794      3.16%     69.10% |        1772      3.12%     72.22% |        1735      3.06%     75.28% |        1759      3.10%     78.39% |        1707      3.01%     81.40% |        1732      3.05%     84.45% |        1777      3.13%     87.58% |        1770      3.12%     90.71% |        1771      3.12%     93.83% |        1756      3.10%     96.93% |        1743      3.07%    100.00%
system.ruby.L2Cache_Controller.MT_IIB.WB_Data_clean::total        56705                      
system.ruby.L2Cache_Controller.MT_IIB.Unblock |          20      0.89%      0.89% |          35      1.56%      2.45% |          66      2.94%      5.38% |          55      2.45%      7.83% |          88      3.92%     11.75% |          60      2.67%     14.42% |          60      2.67%     17.09% |          68      3.03%     20.12% |         138      6.14%     26.26% |         101      4.49%     30.75% |          75      3.34%     34.09% |          55      2.45%     36.54% |          41      1.82%     38.36% |         112      4.98%     43.35% |          61      2.71%     46.06% |          54      2.40%     48.46% |          72      3.20%     51.67% |          70      3.12%     54.78% |          73      3.25%     58.03% |          76      3.38%     61.42% |         111      4.94%     66.36% |          87      3.87%     70.23% |          77      3.43%     73.65% |          68      3.03%     76.68% |          45      2.00%     78.68% |          69      3.07%     81.75% |          61      2.71%     84.47% |          63      2.80%     87.27% |          61      2.71%     89.99% |          79      3.52%     93.50% |          73      3.25%     96.75% |          73      3.25%    100.00%
system.ruby.L2Cache_Controller.MT_IIB.Unblock::total         2247                      
system.ruby.L2Cache_Controller.MT_IB.WB_Data_clean |          20      0.89%      0.89% |          35      1.56%      2.45% |          66      2.94%      5.38% |          55      2.45%      7.83% |          88      3.92%     11.75% |          60      2.67%     14.42% |          60      2.67%     17.09% |          68      3.03%     20.12% |         138      6.14%     26.26% |         101      4.49%     30.75% |          75      3.34%     34.09% |          55      2.45%     36.54% |          41      1.82%     38.36% |         112      4.98%     43.35% |          61      2.71%     46.06% |          54      2.40%     48.46% |          72      3.20%     51.67% |          70      3.12%     54.78% |          73      3.25%     58.03% |          76      3.38%     61.42% |         111      4.94%     66.36% |          87      3.87%     70.23% |          77      3.43%     73.65% |          68      3.03%     76.68% |          45      2.00%     78.68% |          69      3.07%     81.75% |          61      2.71%     84.47% |          63      2.80%     87.27% |          61      2.71%     89.99% |          79      3.52%     93.50% |          73      3.25%     96.75% |          73      3.25%    100.00%
system.ruby.L2Cache_Controller.MT_IB.WB_Data_clean::total         2247                      
system.ruby.L2Cache_Controller.MT_SB.L1_GETS |           0      0.00%      0.00% |           0      0.00%      0.00% |           0      0.00%      0.00% |           0      0.00%      0.00% |           0      0.00%      0.00% |           0      0.00%      0.00% |           0      0.00%      0.00% |           0      0.00%      0.00% |           0      0.00%      0.00% |           0      0.00%      0.00% |           0      0.00%      0.00% |           0      0.00%      0.00% |           0      0.00%      0.00% |           0      0.00%      0.00% |           0      0.00%      0.00% |           0      0.00%      0.00% |           0      0.00%      0.00% |           0      0.00%      0.00% |           0      0.00%      0.00% |           1    100.00%    100.00% |           0      0.00%    100.00% |           0      0.00%    100.00% |           0      0.00%    100.00% |           0      0.00%    100.00% |           0      0.00%    100.00% |           0      0.00%    100.00% |           0      0.00%    100.00% |           0      0.00%    100.00% |           0      0.00%    100.00% |           0      0.00%    100.00% |           0      0.00%    100.00% |           0      0.00%    100.00%
system.ruby.L2Cache_Controller.MT_SB.L1_GETS::total            1                      
system.ruby.L2Cache_Controller.MT_SB.L1_PUTX |           0      0.00%      0.00% |           0      0.00%      0.00% |           1      7.69%      7.69% |           0      0.00%      7.69% |           1      7.69%     15.38% |           0      0.00%     15.38% |           1      7.69%     23.08% |           0      0.00%     23.08% |           0      0.00%     23.08% |           1      7.69%     30.77% |           1      7.69%     38.46% |           0      0.00%     38.46% |           1      7.69%     46.15% |           0      0.00%     46.15% |           1      7.69%     53.85% |           0      0.00%     53.85% |           0      0.00%     53.85% |           1      7.69%     61.54% |           0      0.00%     61.54% |           0      0.00%     61.54% |           0      0.00%     61.54% |           0      0.00%     61.54% |           1      7.69%     69.23% |           0      0.00%     69.23% |           0      0.00%     69.23% |           0      0.00%     69.23% |           0      0.00%     69.23% |           1      7.69%     76.92% |           0      0.00%     76.92% |           1      7.69%     84.62% |           2     15.38%    100.00% |           0      0.00%    100.00%
system.ruby.L2Cache_Controller.MT_SB.L1_PUTX::total           13                      
system.ruby.L2Cache_Controller.MT_SB.Unblock |        1817      3.20%      3.20% |        1728      3.05%      6.25% |        1713      3.02%      9.27% |        1710      3.02%     12.29% |        1691      2.98%     15.27% |        1747      3.08%     18.35% |        1816      3.20%     21.55% |        1820      3.21%     24.76% |        1809      3.19%     27.95% |        1775      3.13%     31.08% |        1795      3.17%     34.25% |        1760      3.10%     37.35% |        1769      3.12%     40.47% |        1751      3.09%     43.56% |        1815      3.20%     46.76% |        1827      3.22%     49.98% |        1814      3.20%     53.18% |        1813      3.20%     56.38% |        1827      3.22%     59.60% |        1833      3.23%     62.83% |        1759      3.10%     65.93% |        1794      3.16%     69.10% |        1772      3.12%     72.22% |        1735      3.06%     75.28% |        1759      3.10%     78.38% |        1709      3.01%     81.40% |        1732      3.05%     84.45% |        1777      3.13%     87.59% |        1770      3.12%     90.71% |        1771      3.12%     93.83% |        1756      3.10%     96.93% |        1743      3.07%    100.00%
system.ruby.L2Cache_Controller.MT_SB.Unblock::total        56707                      
system.ruby.SimicsNetworkPortInterface_Controller.MessageSend |      492540     20.19%     20.19% |     1219566     50.00%     70.19% |       87226      3.58%     73.77% |       94280      3.87%     77.63% |      101208      4.15%     81.78% |       96466      3.95%     85.74% |       88208      3.62%     89.36% |       94257      3.86%     93.22% |       81112      3.33%     96.55% |       84269      3.45%    100.00% |           0      0.00%    100.00% |           0      0.00%    100.00% |           0      0.00%    100.00% |           0      0.00%    100.00% |           0      0.00%    100.00% |           0      0.00%    100.00% |           0      0.00%    100.00% |           0      0.00%    100.00% |           0      0.00%    100.00% |           0      0.00%    100.00% |           0      0.00%    100.00% |           0      0.00%    100.00% |           0      0.00%    100.00% |           0      0.00%    100.00% |           0      0.00%    100.00% |           0      0.00%    100.00% |           0      0.00%    100.00% |           0      0.00%    100.00% |           0      0.00%    100.00% |           0      0.00%    100.00% |           0      0.00%    100.00% |           0      0.00%    100.00%
system.ruby.SimicsNetworkPortInterface_Controller.MessageSend::total      2439132                      
system.ruby.SimicsNetworkPortInterface_Controller.MessageRecv |      492540     20.19%     20.19% |     1219566     50.00%     70.19% |       87226      3.58%     73.77% |       94280      3.87%     77.63% |      101208      4.15%     81.78% |       96466      3.95%     85.74% |       88208      3.62%     89.36% |       94257      3.86%     93.22% |       81112      3.33%     96.55% |       84269      3.45%    100.00% |           0      0.00%    100.00% |           0      0.00%    100.00% |           0      0.00%    100.00% |           0      0.00%    100.00% |           0      0.00%    100.00% |           0      0.00%    100.00% |           0      0.00%    100.00% |           0      0.00%    100.00% |           0      0.00%    100.00% |           0      0.00%    100.00% |           0      0.00%    100.00% |           0      0.00%    100.00% |           0      0.00%    100.00% |           0      0.00%    100.00% |           0      0.00%    100.00% |           0      0.00%    100.00% |           0      0.00%    100.00% |           0      0.00%    100.00% |           0      0.00%    100.00% |           0      0.00%    100.00% |           0      0.00%    100.00% |           0      0.00%    100.00%
system.ruby.SimicsNetworkPortInterface_Controller.MessageRecv::total      2439132                      
system.ruby.SimicsNetworkPortInterface_Controller.A.MessageSend |      492540     20.19%     20.19% |     1219566     50.00%     70.19% |       87226      3.58%     73.77% |       94280      3.87%     77.63% |      101208      4.15%     81.78% |       96466      3.95%     85.74% |       88208      3.62%     89.36% |       94257      3.86%     93.22% |       81112      3.33%     96.55% |       84269      3.45%    100.00% |           0      0.00%    100.00% |           0      0.00%    100.00% |           0      0.00%    100.00% |           0      0.00%    100.00% |           0      0.00%    100.00% |           0      0.00%    100.00% |           0      0.00%    100.00% |           0      0.00%    100.00% |           0      0.00%    100.00% |           0      0.00%    100.00% |           0      0.00%    100.00% |           0      0.00%    100.00% |           0      0.00%    100.00% |           0      0.00%    100.00% |           0      0.00%    100.00% |           0      0.00%    100.00% |           0      0.00%    100.00% |           0      0.00%    100.00% |           0      0.00%    100.00% |           0      0.00%    100.00% |           0      0.00%    100.00% |           0      0.00%    100.00%
system.ruby.SimicsNetworkPortInterface_Controller.A.MessageSend::total      2439132                      
system.ruby.SimicsNetworkPortInterface_Controller.A.MessageRecv |      492540     20.19%     20.19% |     1219566     50.00%     70.19% |       87226      3.58%     73.77% |       94280      3.87%     77.63% |      101208      4.15%     81.78% |       96466      3.95%     85.74% |       88208      3.62%     89.36% |       94257      3.86%     93.22% |       81112      3.33%     96.55% |       84269      3.45%    100.00% |           0      0.00%    100.00% |           0      0.00%    100.00% |           0      0.00%    100.00% |           0      0.00%    100.00% |           0      0.00%    100.00% |           0      0.00%    100.00% |           0      0.00%    100.00% |           0      0.00%    100.00% |           0      0.00%    100.00% |           0      0.00%    100.00% |           0      0.00%    100.00% |           0      0.00%    100.00% |           0      0.00%    100.00% |           0      0.00%    100.00% |           0      0.00%    100.00% |           0      0.00%    100.00% |           0      0.00%    100.00% |           0      0.00%    100.00% |           0      0.00%    100.00% |           0      0.00%    100.00% |           0      0.00%    100.00% |           0      0.00%    100.00%
system.ruby.SimicsNetworkPortInterface_Controller.A.MessageRecv::total      2439132                      
system.switch_cpus.kern.inst.arm                    0                       # number of arm instructions executed
system.switch_cpus.kern.inst.quiesce                0                       # number of quiesce instructions executed

---------- End Simulation Statistics   ----------
