
---------- Begin Simulation Statistics ----------
sim_seconds                                  0.119606                       # Number of seconds simulated
sim_ticks                                119606456500                       # Number of ticks simulated
final_tick                               5295774535000                       # Number of ticks from beginning of simulation (restored from checkpoints and never reset)
sim_freq                                 1000000000000                       # Frequency of simulated ticks
host_inst_rate                                   8837                       # Simulator instruction rate (inst/s)
host_op_rate                                    15652                       # Simulator op (including micro ops) rate (op/s)
host_tick_rate                               19365055                       # Simulator tick rate (ticks/s)
host_mem_usage                                6537996                       # Number of bytes of host memory used
host_seconds                                  6176.41                       # Real time elapsed on the host
sim_insts                                    54581132                       # Number of instructions simulated
sim_ops                                      96670613                       # Number of ops (including micro ops) simulated
system.voltage_domain.voltage                       1                       # Voltage in Volts
system.clk_domain.clock                           500                       # Clock period in ticks
system.mem_ctrls0.bytes_read::ruby.dir_cntrl0     42241856                       # Number of bytes read from this memory
system.mem_ctrls0.bytes_read::total          42241856                       # Number of bytes read from this memory
system.mem_ctrls0.bytes_written::ruby.dir_cntrl0     19941376                       # Number of bytes written to this memory
system.mem_ctrls0.bytes_written::total       19941376                       # Number of bytes written to this memory
system.mem_ctrls0.num_reads::ruby.dir_cntrl0       660029                       # Number of read requests responded to by this memory
system.mem_ctrls0.num_reads::total             660029                       # Number of read requests responded to by this memory
system.mem_ctrls0.num_writes::ruby.dir_cntrl0       311584                       # Number of write requests responded to by this memory
system.mem_ctrls0.num_writes::total            311584                       # Number of write requests responded to by this memory
system.mem_ctrls0.bw_read::ruby.dir_cntrl0    353173710                       # Total read bandwidth from this memory (bytes/s)
system.mem_ctrls0.bw_read::total            353173710                       # Total read bandwidth from this memory (bytes/s)
system.mem_ctrls0.bw_write::ruby.dir_cntrl0    166724913                       # Write bandwidth from this memory (bytes/s)
system.mem_ctrls0.bw_write::total           166724913                       # Write bandwidth from this memory (bytes/s)
system.mem_ctrls0.bw_total::ruby.dir_cntrl0    519898623                       # Total bandwidth to/from this memory (bytes/s)
system.mem_ctrls0.bw_total::total           519898623                       # Total bandwidth to/from this memory (bytes/s)
system.mem_ctrls0.readReqs                     660029                       # Number of read requests accepted
system.mem_ctrls0.writeReqs                    311584                       # Number of write requests accepted
system.mem_ctrls0.readBursts                   660029                       # Number of DRAM read bursts, including those serviced by the write queue
system.mem_ctrls0.writeBursts                  311584                       # Number of DRAM write bursts, including those merged in the write queue
system.mem_ctrls0.bytesReadDRAM              42217984                       # Total number of bytes read from DRAM
system.mem_ctrls0.bytesReadWrQ                  23872                       # Total number of bytes read from write queue
system.mem_ctrls0.bytesWritten               19941312                       # Total number of bytes written to DRAM
system.mem_ctrls0.bytesReadSys               42241856                       # Total read bytes from the system interface side
system.mem_ctrls0.bytesWrittenSys            19941376                       # Total written bytes from the system interface side
system.mem_ctrls0.servicedByWrQ                   373                       # Number of DRAM read bursts serviced by the write queue
system.mem_ctrls0.mergedWrBursts                    0                       # Number of DRAM write bursts merged with an existing one
system.mem_ctrls0.neitherReadNorWriteReqs            0                       # Number of requests that are neither read nor write
system.mem_ctrls0.perBankRdBursts::0            41423                       # Per bank write bursts
system.mem_ctrls0.perBankRdBursts::1            41271                       # Per bank write bursts
system.mem_ctrls0.perBankRdBursts::2            40452                       # Per bank write bursts
system.mem_ctrls0.perBankRdBursts::3            41122                       # Per bank write bursts
system.mem_ctrls0.perBankRdBursts::4            40913                       # Per bank write bursts
system.mem_ctrls0.perBankRdBursts::5            41361                       # Per bank write bursts
system.mem_ctrls0.perBankRdBursts::6            42051                       # Per bank write bursts
system.mem_ctrls0.perBankRdBursts::7            41936                       # Per bank write bursts
system.mem_ctrls0.perBankRdBursts::8            41109                       # Per bank write bursts
system.mem_ctrls0.perBankRdBursts::9            41085                       # Per bank write bursts
system.mem_ctrls0.perBankRdBursts::10           40498                       # Per bank write bursts
system.mem_ctrls0.perBankRdBursts::11           41208                       # Per bank write bursts
system.mem_ctrls0.perBankRdBursts::12           40744                       # Per bank write bursts
system.mem_ctrls0.perBankRdBursts::13           41165                       # Per bank write bursts
system.mem_ctrls0.perBankRdBursts::14           41555                       # Per bank write bursts
system.mem_ctrls0.perBankRdBursts::15           41763                       # Per bank write bursts
system.mem_ctrls0.perBankWrBursts::0            19493                       # Per bank write bursts
system.mem_ctrls0.perBankWrBursts::1            19353                       # Per bank write bursts
system.mem_ctrls0.perBankWrBursts::2            19319                       # Per bank write bursts
system.mem_ctrls0.perBankWrBursts::3            19461                       # Per bank write bursts
system.mem_ctrls0.perBankWrBursts::4            19421                       # Per bank write bursts
system.mem_ctrls0.perBankWrBursts::5            19562                       # Per bank write bursts
system.mem_ctrls0.perBankWrBursts::6            19719                       # Per bank write bursts
system.mem_ctrls0.perBankWrBursts::7            19788                       # Per bank write bursts
system.mem_ctrls0.perBankWrBursts::8            19469                       # Per bank write bursts
system.mem_ctrls0.perBankWrBursts::9            19476                       # Per bank write bursts
system.mem_ctrls0.perBankWrBursts::10           19193                       # Per bank write bursts
system.mem_ctrls0.perBankWrBursts::11           19413                       # Per bank write bursts
system.mem_ctrls0.perBankWrBursts::12           19360                       # Per bank write bursts
system.mem_ctrls0.perBankWrBursts::13           19416                       # Per bank write bursts
system.mem_ctrls0.perBankWrBursts::14           19616                       # Per bank write bursts
system.mem_ctrls0.perBankWrBursts::15           19524                       # Per bank write bursts
system.mem_ctrls0.numRdRetry                    65972                       # Number of times read queue was full causing retry
system.mem_ctrls0.numWrRetry                    11911                       # Number of times write queue was full causing retry
system.mem_ctrls0.totGap                 119605804500                       # Total gap between requests
system.mem_ctrls0.readPktSize::0                    0                       # Read request sizes (log2)
system.mem_ctrls0.readPktSize::1                    0                       # Read request sizes (log2)
system.mem_ctrls0.readPktSize::2                    0                       # Read request sizes (log2)
system.mem_ctrls0.readPktSize::3                    0                       # Read request sizes (log2)
system.mem_ctrls0.readPktSize::4                    0                       # Read request sizes (log2)
system.mem_ctrls0.readPktSize::5                    0                       # Read request sizes (log2)
system.mem_ctrls0.readPktSize::6               660029                       # Read request sizes (log2)
system.mem_ctrls0.writePktSize::0                   0                       # Write request sizes (log2)
system.mem_ctrls0.writePktSize::1                   0                       # Write request sizes (log2)
system.mem_ctrls0.writePktSize::2                   0                       # Write request sizes (log2)
system.mem_ctrls0.writePktSize::3                   0                       # Write request sizes (log2)
system.mem_ctrls0.writePktSize::4                   0                       # Write request sizes (log2)
system.mem_ctrls0.writePktSize::5                   0                       # Write request sizes (log2)
system.mem_ctrls0.writePktSize::6              311584                       # Write request sizes (log2)
system.mem_ctrls0.rdQLenPdf::0                 177649                       # What read queue length does an incoming req see
system.mem_ctrls0.rdQLenPdf::1                  22610                       # What read queue length does an incoming req see
system.mem_ctrls0.rdQLenPdf::2                  21432                       # What read queue length does an incoming req see
system.mem_ctrls0.rdQLenPdf::3                  21812                       # What read queue length does an incoming req see
system.mem_ctrls0.rdQLenPdf::4                  22282                       # What read queue length does an incoming req see
system.mem_ctrls0.rdQLenPdf::5                  22457                       # What read queue length does an incoming req see
system.mem_ctrls0.rdQLenPdf::6                  22016                       # What read queue length does an incoming req see
system.mem_ctrls0.rdQLenPdf::7                  21841                       # What read queue length does an incoming req see
system.mem_ctrls0.rdQLenPdf::8                  21043                       # What read queue length does an incoming req see
system.mem_ctrls0.rdQLenPdf::9                  20069                       # What read queue length does an incoming req see
system.mem_ctrls0.rdQLenPdf::10                 18997                       # What read queue length does an incoming req see
system.mem_ctrls0.rdQLenPdf::11                 18123                       # What read queue length does an incoming req see
system.mem_ctrls0.rdQLenPdf::12                 16703                       # What read queue length does an incoming req see
system.mem_ctrls0.rdQLenPdf::13                 15415                       # What read queue length does an incoming req see
system.mem_ctrls0.rdQLenPdf::14                 14251                       # What read queue length does an incoming req see
system.mem_ctrls0.rdQLenPdf::15                 13183                       # What read queue length does an incoming req see
system.mem_ctrls0.rdQLenPdf::16                 12123                       # What read queue length does an incoming req see
system.mem_ctrls0.rdQLenPdf::17                 11209                       # What read queue length does an incoming req see
system.mem_ctrls0.rdQLenPdf::18                 10359                       # What read queue length does an incoming req see
system.mem_ctrls0.rdQLenPdf::19                  9914                       # What read queue length does an incoming req see
system.mem_ctrls0.rdQLenPdf::20                  8831                       # What read queue length does an incoming req see
system.mem_ctrls0.rdQLenPdf::21                  8232                       # What read queue length does an incoming req see
system.mem_ctrls0.rdQLenPdf::22                  7706                       # What read queue length does an incoming req see
system.mem_ctrls0.rdQLenPdf::23                  7240                       # What read queue length does an incoming req see
system.mem_ctrls0.rdQLenPdf::24                  6754                       # What read queue length does an incoming req see
system.mem_ctrls0.rdQLenPdf::25                  6544                       # What read queue length does an incoming req see
system.mem_ctrls0.rdQLenPdf::26                  6264                       # What read queue length does an incoming req see
system.mem_ctrls0.rdQLenPdf::27                  6015                       # What read queue length does an incoming req see
system.mem_ctrls0.rdQLenPdf::28                  5746                       # What read queue length does an incoming req see
system.mem_ctrls0.rdQLenPdf::29                  5581                       # What read queue length does an incoming req see
system.mem_ctrls0.rdQLenPdf::30                  5492                       # What read queue length does an incoming req see
system.mem_ctrls0.rdQLenPdf::31                 71763                       # What read queue length does an incoming req see
system.mem_ctrls0.wrQLenPdf::0                  44718                       # What write queue length does an incoming req see
system.mem_ctrls0.wrQLenPdf::1                  49913                       # What write queue length does an incoming req see
system.mem_ctrls0.wrQLenPdf::2                  52660                       # What write queue length does an incoming req see
system.mem_ctrls0.wrQLenPdf::3                  54005                       # What write queue length does an incoming req see
system.mem_ctrls0.wrQLenPdf::4                  54214                       # What write queue length does an incoming req see
system.mem_ctrls0.wrQLenPdf::5                  17312                       # What write queue length does an incoming req see
system.mem_ctrls0.wrQLenPdf::6                  16640                       # What write queue length does an incoming req see
system.mem_ctrls0.wrQLenPdf::7                  22122                       # What write queue length does an incoming req see
system.mem_ctrls0.bytesPerActivate::samples       316033                       # Bytes accessed per row activation
system.mem_ctrls0.bytesPerActivate::mean   196.685080                       # Bytes accessed per row activation
system.mem_ctrls0.bytesPerActivate::gmean   150.570523                       # Bytes accessed per row activation
system.mem_ctrls0.bytesPerActivate::stdev   149.249155                       # Bytes accessed per row activation
system.mem_ctrls0.bytesPerActivate::0-127       107130     33.90%     33.90% # Bytes accessed per row activation
system.mem_ctrls0.bytesPerActivate::128-255        97429     30.83%     64.73% # Bytes accessed per row activation
system.mem_ctrls0.bytesPerActivate::256-383        73093     23.13%     87.86% # Bytes accessed per row activation
system.mem_ctrls0.bytesPerActivate::384-511        19057      6.03%     93.89% # Bytes accessed per row activation
system.mem_ctrls0.bytesPerActivate::512-639        14300      4.52%     98.41% # Bytes accessed per row activation
system.mem_ctrls0.bytesPerActivate::640-767         2701      0.85%     99.26% # Bytes accessed per row activation
system.mem_ctrls0.bytesPerActivate::768-895         1175      0.37%     99.64% # Bytes accessed per row activation
system.mem_ctrls0.bytesPerActivate::896-1023          742      0.23%     99.87% # Bytes accessed per row activation
system.mem_ctrls0.bytesPerActivate::1024-1151          406      0.13%    100.00% # Bytes accessed per row activation
system.mem_ctrls0.bytesPerActivate::total       316033                       # Bytes accessed per row activation
system.mem_ctrls0.rdPerTurnAround::samples        46631                       # Reads before turning the bus around for writes
system.mem_ctrls0.rdPerTurnAround::mean     14.146255                       # Reads before turning the bus around for writes
system.mem_ctrls0.rdPerTurnAround::stdev    29.888540                       # Reads before turning the bus around for writes
system.mem_ctrls0.rdPerTurnAround::0-127        46364     99.43%     99.43% # Reads before turning the bus around for writes
system.mem_ctrls0.rdPerTurnAround::128-255          207      0.44%     99.87% # Reads before turning the bus around for writes
system.mem_ctrls0.rdPerTurnAround::256-383           41      0.09%     99.96% # Reads before turning the bus around for writes
system.mem_ctrls0.rdPerTurnAround::384-511           10      0.02%     99.98% # Reads before turning the bus around for writes
system.mem_ctrls0.rdPerTurnAround::512-639            4      0.01%     99.99% # Reads before turning the bus around for writes
system.mem_ctrls0.rdPerTurnAround::640-767            2      0.00%     99.99% # Reads before turning the bus around for writes
system.mem_ctrls0.rdPerTurnAround::768-895            2      0.00%    100.00% # Reads before turning the bus around for writes
system.mem_ctrls0.rdPerTurnAround::3968-4095            1      0.00%    100.00% # Reads before turning the bus around for writes
system.mem_ctrls0.rdPerTurnAround::total        46631                       # Reads before turning the bus around for writes
system.mem_ctrls0.wrPerTurnAround::samples        46631                       # Writes before turning the bus around for reads
system.mem_ctrls0.wrPerTurnAround::mean      6.681885                       # Writes before turning the bus around for reads
system.mem_ctrls0.wrPerTurnAround::gmean     6.169301                       # Writes before turning the bus around for reads
system.mem_ctrls0.wrPerTurnAround::stdev     3.176234                       # Writes before turning the bus around for reads
system.mem_ctrls0.wrPerTurnAround::4-7          36030     77.27%     77.27% # Writes before turning the bus around for reads
system.mem_ctrls0.wrPerTurnAround::8-11          5370     11.52%     88.78% # Writes before turning the bus around for reads
system.mem_ctrls0.wrPerTurnAround::12-15         2853      6.12%     94.90% # Writes before turning the bus around for reads
system.mem_ctrls0.wrPerTurnAround::16-19         2378      5.10%    100.00% # Writes before turning the bus around for reads
system.mem_ctrls0.wrPerTurnAround::total        46631                       # Writes before turning the bus around for reads
system.mem_ctrls0.totQLat                 75568412823                       # Total ticks spent queuing
system.mem_ctrls0.totMemAccLat            87936962823                       # Total ticks spent from burst creation until serviced by the DRAM
system.mem_ctrls0.totBusLat                3298280000                       # Total ticks spent in databus transfers
system.mem_ctrls0.avgQLat                   114557.30                       # Average queueing delay per DRAM burst
system.mem_ctrls0.avgBusLat                   5000.00                       # Average bus latency per DRAM burst
system.mem_ctrls0.avgMemAccLat              133307.30                       # Average memory access latency per DRAM burst
system.mem_ctrls0.avgRdBW                      352.97                       # Average DRAM read bandwidth in MiByte/s
system.mem_ctrls0.avgWrBW                      166.72                       # Average achieved write bandwidth in MiByte/s
system.mem_ctrls0.avgRdBWSys                   353.17                       # Average system read bandwidth in MiByte/s
system.mem_ctrls0.avgWrBWSys                   166.72                       # Average system write bandwidth in MiByte/s
system.mem_ctrls0.peakBW                     12800.00                       # Theoretical peak bandwidth in MiByte/s
system.mem_ctrls0.busUtil                        4.06                       # Data bus utilization in percentage
system.mem_ctrls0.busUtilRead                    2.76                       # Data bus utilization in percentage for reads
system.mem_ctrls0.busUtilWrite                   1.30                       # Data bus utilization in percentage for writes
system.mem_ctrls0.avgRdQLen                      1.76                       # Average read queue length when enqueuing
system.mem_ctrls0.avgWrQLen                      3.04                       # Average write queue length when enqueuing
system.mem_ctrls0.readRowHits                  485650                       # Number of row buffer hits during reads
system.mem_ctrls0.writeRowHits                 169552                       # Number of row buffer hits during writes
system.mem_ctrls0.readRowHitRate                73.62                       # Row buffer hit rate for reads
system.mem_ctrls0.writeRowHitRate               54.42                       # Row buffer hit rate for writes
system.mem_ctrls0.avgGap                    123100.25                       # Average gap between requests
system.mem_ctrls0.pageHitRate                   67.46                       # Row buffer hit rate, read and write combined
system.mem_ctrls0.memoryStateTime::IDLE   20209123250                       # Time in different power states
system.mem_ctrls0.memoryStateTime::REF     3993860000                       # Time in different power states
system.mem_ctrls0.memoryStateTime::PRE_PDN            0                       # Time in different power states
system.mem_ctrls0.memoryStateTime::ACT    95401876750                       # Time in different power states
system.mem_ctrls0.memoryStateTime::ACT_PDN            0                       # Time in different power states
system.mem_ctrls0.actEnergy::0             1200837960                       # Energy for activate commands per rank (pJ)
system.mem_ctrls0.actEnergy::1             1188348840                       # Energy for activate commands per rank (pJ)
system.mem_ctrls0.preEnergy::0              655219125                       # Energy for precharge commands per rank (pJ)
system.mem_ctrls0.preEnergy::1              648404625                       # Energy for precharge commands per rank (pJ)
system.mem_ctrls0.readEnergy::0            2578118400                       # Energy for read commands per rank (pJ)
system.mem_ctrls0.readEnergy::1            2567151600                       # Energy for read commands per rank (pJ)
system.mem_ctrls0.writeEnergy::0           1011618720                       # Energy for write commands per rank (pJ)
system.mem_ctrls0.writeEnergy::1           1007406720                       # Energy for write commands per rank (pJ)
system.mem_ctrls0.refreshEnergy::0         7811990160                       # Energy for refresh commands per rank (pJ)
system.mem_ctrls0.refreshEnergy::1         7811990160                       # Energy for refresh commands per rank (pJ)
system.mem_ctrls0.actBackEnergy::0        49302731970                       # Energy for active background per rank (pJ)
system.mem_ctrls0.actBackEnergy::1        48833042850                       # Energy for active background per rank (pJ)
system.mem_ctrls0.preBackEnergy::0        28514897250                       # Energy for precharge background per rank (pJ)
system.mem_ctrls0.preBackEnergy::1        28926905250                       # Energy for precharge background per rank (pJ)
system.mem_ctrls0.totalEnergy::0          91075413585                       # Total energy per rank (pJ)
system.mem_ctrls0.totalEnergy::1          90983250045                       # Total energy per rank (pJ)
system.mem_ctrls0.averagePower::0          761.469258                       # Core power per rank (mW)
system.mem_ctrls0.averagePower::1          760.698692                       # Core power per rank (mW)
system.mem_ctrls1.bytes_read::ruby.dir_cntrl1     41683712                       # Number of bytes read from this memory
system.mem_ctrls1.bytes_read::total          41683712                       # Number of bytes read from this memory
system.mem_ctrls1.bytes_written::ruby.dir_cntrl1     19397440                       # Number of bytes written to this memory
system.mem_ctrls1.bytes_written::total       19397440                       # Number of bytes written to this memory
system.mem_ctrls1.num_reads::ruby.dir_cntrl1       651308                       # Number of read requests responded to by this memory
system.mem_ctrls1.num_reads::total             651308                       # Number of read requests responded to by this memory
system.mem_ctrls1.num_writes::ruby.dir_cntrl1       303085                       # Number of write requests responded to by this memory
system.mem_ctrls1.num_writes::total            303085                       # Number of write requests responded to by this memory
system.mem_ctrls1.bw_read::ruby.dir_cntrl1    348507206                       # Total read bandwidth from this memory (bytes/s)
system.mem_ctrls1.bw_read::total            348507206                       # Total read bandwidth from this memory (bytes/s)
system.mem_ctrls1.bw_write::ruby.dir_cntrl1    162177198                       # Write bandwidth from this memory (bytes/s)
system.mem_ctrls1.bw_write::total           162177198                       # Write bandwidth from this memory (bytes/s)
system.mem_ctrls1.bw_total::ruby.dir_cntrl1    510684404                       # Total bandwidth to/from this memory (bytes/s)
system.mem_ctrls1.bw_total::total           510684404                       # Total bandwidth to/from this memory (bytes/s)
system.mem_ctrls1.readReqs                     651308                       # Number of read requests accepted
system.mem_ctrls1.writeReqs                    303085                       # Number of write requests accepted
system.mem_ctrls1.readBursts                   651308                       # Number of DRAM read bursts, including those serviced by the write queue
system.mem_ctrls1.writeBursts                  303085                       # Number of DRAM write bursts, including those merged in the write queue
system.mem_ctrls1.bytesReadDRAM              41661248                       # Total number of bytes read from DRAM
system.mem_ctrls1.bytesReadWrQ                  22464                       # Total number of bytes read from write queue
system.mem_ctrls1.bytesWritten               19397440                       # Total number of bytes written to DRAM
system.mem_ctrls1.bytesReadSys               41683712                       # Total read bytes from the system interface side
system.mem_ctrls1.bytesWrittenSys            19397440                       # Total written bytes from the system interface side
system.mem_ctrls1.servicedByWrQ                   351                       # Number of DRAM read bursts serviced by the write queue
system.mem_ctrls1.mergedWrBursts                    0                       # Number of DRAM write bursts merged with an existing one
system.mem_ctrls1.neitherReadNorWriteReqs            0                       # Number of requests that are neither read nor write
system.mem_ctrls1.perBankRdBursts::0            40835                       # Per bank write bursts
system.mem_ctrls1.perBankRdBursts::1            40767                       # Per bank write bursts
system.mem_ctrls1.perBankRdBursts::2            40171                       # Per bank write bursts
system.mem_ctrls1.perBankRdBursts::3            40364                       # Per bank write bursts
system.mem_ctrls1.perBankRdBursts::4            40510                       # Per bank write bursts
system.mem_ctrls1.perBankRdBursts::5            40418                       # Per bank write bursts
system.mem_ctrls1.perBankRdBursts::6            41918                       # Per bank write bursts
system.mem_ctrls1.perBankRdBursts::7            41472                       # Per bank write bursts
system.mem_ctrls1.perBankRdBursts::8            40539                       # Per bank write bursts
system.mem_ctrls1.perBankRdBursts::9            40505                       # Per bank write bursts
system.mem_ctrls1.perBankRdBursts::10           40133                       # Per bank write bursts
system.mem_ctrls1.perBankRdBursts::11           40534                       # Per bank write bursts
system.mem_ctrls1.perBankRdBursts::12           40248                       # Per bank write bursts
system.mem_ctrls1.perBankRdBursts::13           40345                       # Per bank write bursts
system.mem_ctrls1.perBankRdBursts::14           41025                       # Per bank write bursts
system.mem_ctrls1.perBankRdBursts::15           41173                       # Per bank write bursts
system.mem_ctrls1.perBankWrBursts::0            18919                       # Per bank write bursts
system.mem_ctrls1.perBankWrBursts::1            18913                       # Per bank write bursts
system.mem_ctrls1.perBankWrBursts::2            18902                       # Per bank write bursts
system.mem_ctrls1.perBankWrBursts::3            18856                       # Per bank write bursts
system.mem_ctrls1.perBankWrBursts::4            18875                       # Per bank write bursts
system.mem_ctrls1.perBankWrBursts::5            18934                       # Per bank write bursts
system.mem_ctrls1.perBankWrBursts::6            19271                       # Per bank write bursts
system.mem_ctrls1.perBankWrBursts::7            19301                       # Per bank write bursts
system.mem_ctrls1.perBankWrBursts::8            18850                       # Per bank write bursts
system.mem_ctrls1.perBankWrBursts::9            18978                       # Per bank write bursts
system.mem_ctrls1.perBankWrBursts::10           18758                       # Per bank write bursts
system.mem_ctrls1.perBankWrBursts::11           18800                       # Per bank write bursts
system.mem_ctrls1.perBankWrBursts::12           18818                       # Per bank write bursts
system.mem_ctrls1.perBankWrBursts::13           18808                       # Per bank write bursts
system.mem_ctrls1.perBankWrBursts::14           19069                       # Per bank write bursts
system.mem_ctrls1.perBankWrBursts::15           19033                       # Per bank write bursts
system.mem_ctrls1.numRdRetry                    66453                       # Number of times read queue was full causing retry
system.mem_ctrls1.numWrRetry                    11723                       # Number of times write queue was full causing retry
system.mem_ctrls1.totGap                 119605552500                       # Total gap between requests
system.mem_ctrls1.readPktSize::0                    0                       # Read request sizes (log2)
system.mem_ctrls1.readPktSize::1                    0                       # Read request sizes (log2)
system.mem_ctrls1.readPktSize::2                    0                       # Read request sizes (log2)
system.mem_ctrls1.readPktSize::3                    0                       # Read request sizes (log2)
system.mem_ctrls1.readPktSize::4                    0                       # Read request sizes (log2)
system.mem_ctrls1.readPktSize::5                    0                       # Read request sizes (log2)
system.mem_ctrls1.readPktSize::6               651308                       # Read request sizes (log2)
system.mem_ctrls1.writePktSize::0                   0                       # Write request sizes (log2)
system.mem_ctrls1.writePktSize::1                   0                       # Write request sizes (log2)
system.mem_ctrls1.writePktSize::2                   0                       # Write request sizes (log2)
system.mem_ctrls1.writePktSize::3                   0                       # Write request sizes (log2)
system.mem_ctrls1.writePktSize::4                   0                       # Write request sizes (log2)
system.mem_ctrls1.writePktSize::5                   0                       # Write request sizes (log2)
system.mem_ctrls1.writePktSize::6              303085                       # Write request sizes (log2)
system.mem_ctrls1.rdQLenPdf::0                 170554                       # What read queue length does an incoming req see
system.mem_ctrls1.rdQLenPdf::1                  21442                       # What read queue length does an incoming req see
system.mem_ctrls1.rdQLenPdf::2                  21460                       # What read queue length does an incoming req see
system.mem_ctrls1.rdQLenPdf::3                  22329                       # What read queue length does an incoming req see
system.mem_ctrls1.rdQLenPdf::4                  22628                       # What read queue length does an incoming req see
system.mem_ctrls1.rdQLenPdf::5                  22468                       # What read queue length does an incoming req see
system.mem_ctrls1.rdQLenPdf::6                  22306                       # What read queue length does an incoming req see
system.mem_ctrls1.rdQLenPdf::7                  21696                       # What read queue length does an incoming req see
system.mem_ctrls1.rdQLenPdf::8                  20736                       # What read queue length does an incoming req see
system.mem_ctrls1.rdQLenPdf::9                  19944                       # What read queue length does an incoming req see
system.mem_ctrls1.rdQLenPdf::10                 18693                       # What read queue length does an incoming req see
system.mem_ctrls1.rdQLenPdf::11                 17458                       # What read queue length does an incoming req see
system.mem_ctrls1.rdQLenPdf::12                 16377                       # What read queue length does an incoming req see
system.mem_ctrls1.rdQLenPdf::13                 15470                       # What read queue length does an incoming req see
system.mem_ctrls1.rdQLenPdf::14                 14196                       # What read queue length does an incoming req see
system.mem_ctrls1.rdQLenPdf::15                 13089                       # What read queue length does an incoming req see
system.mem_ctrls1.rdQLenPdf::16                 12121                       # What read queue length does an incoming req see
system.mem_ctrls1.rdQLenPdf::17                 11210                       # What read queue length does an incoming req see
system.mem_ctrls1.rdQLenPdf::18                 10545                       # What read queue length does an incoming req see
system.mem_ctrls1.rdQLenPdf::19                  9746                       # What read queue length does an incoming req see
system.mem_ctrls1.rdQLenPdf::20                  8991                       # What read queue length does an incoming req see
system.mem_ctrls1.rdQLenPdf::21                  8311                       # What read queue length does an incoming req see
system.mem_ctrls1.rdQLenPdf::22                  7818                       # What read queue length does an incoming req see
system.mem_ctrls1.rdQLenPdf::23                  7369                       # What read queue length does an incoming req see
system.mem_ctrls1.rdQLenPdf::24                  6893                       # What read queue length does an incoming req see
system.mem_ctrls1.rdQLenPdf::25                  6500                       # What read queue length does an incoming req see
system.mem_ctrls1.rdQLenPdf::26                  6217                       # What read queue length does an incoming req see
system.mem_ctrls1.rdQLenPdf::27                  5910                       # What read queue length does an incoming req see
system.mem_ctrls1.rdQLenPdf::28                  5667                       # What read queue length does an incoming req see
system.mem_ctrls1.rdQLenPdf::29                  5475                       # What read queue length does an incoming req see
system.mem_ctrls1.rdQLenPdf::30                  5340                       # What read queue length does an incoming req see
system.mem_ctrls1.rdQLenPdf::31                 71998                       # What read queue length does an incoming req see
system.mem_ctrls1.wrQLenPdf::0                  43162                       # What write queue length does an incoming req see
system.mem_ctrls1.wrQLenPdf::1                  48426                       # What write queue length does an incoming req see
system.mem_ctrls1.wrQLenPdf::2                  50983                       # What write queue length does an incoming req see
system.mem_ctrls1.wrQLenPdf::3                  52162                       # What write queue length does an incoming req see
system.mem_ctrls1.wrQLenPdf::4                  52594                       # What write queue length does an incoming req see
system.mem_ctrls1.wrQLenPdf::5                  17327                       # What write queue length does an incoming req see
system.mem_ctrls1.wrQLenPdf::6                  16477                       # What write queue length does an incoming req see
system.mem_ctrls1.wrQLenPdf::7                  21954                       # What write queue length does an incoming req see
system.mem_ctrls1.bytesPerActivate::samples       302898                       # Bytes accessed per row activation
system.mem_ctrls1.bytesPerActivate::mean   201.579991                       # Bytes accessed per row activation
system.mem_ctrls1.bytesPerActivate::gmean   154.060288                       # Bytes accessed per row activation
system.mem_ctrls1.bytesPerActivate::stdev   151.978860                       # Bytes accessed per row activation
system.mem_ctrls1.bytesPerActivate::0-127       100749     33.26%     33.26% # Bytes accessed per row activation
system.mem_ctrls1.bytesPerActivate::128-255        90464     29.87%     63.13% # Bytes accessed per row activation
system.mem_ctrls1.bytesPerActivate::256-383        73260     24.19%     87.31% # Bytes accessed per row activation
system.mem_ctrls1.bytesPerActivate::384-511        18994      6.27%     93.58% # Bytes accessed per row activation
system.mem_ctrls1.bytesPerActivate::512-639        14173      4.68%     98.26% # Bytes accessed per row activation
system.mem_ctrls1.bytesPerActivate::640-767         2705      0.89%     99.16% # Bytes accessed per row activation
system.mem_ctrls1.bytesPerActivate::768-895         1283      0.42%     99.58% # Bytes accessed per row activation
system.mem_ctrls1.bytesPerActivate::896-1023          861      0.28%     99.86% # Bytes accessed per row activation
system.mem_ctrls1.bytesPerActivate::1024-1151          409      0.14%    100.00% # Bytes accessed per row activation
system.mem_ctrls1.bytesPerActivate::total       302898                       # Bytes accessed per row activation
system.mem_ctrls1.rdPerTurnAround::samples        45041                       # Reads before turning the bus around for writes
system.mem_ctrls1.rdPerTurnAround::mean     14.452521                       # Reads before turning the bus around for writes
system.mem_ctrls1.rdPerTurnAround::stdev    27.852953                       # Reads before turning the bus around for writes
system.mem_ctrls1.rdPerTurnAround::0-127        44770     99.40%     99.40% # Reads before turning the bus around for writes
system.mem_ctrls1.rdPerTurnAround::128-255          218      0.48%     99.88% # Reads before turning the bus around for writes
system.mem_ctrls1.rdPerTurnAround::256-383           31      0.07%     99.95% # Reads before turning the bus around for writes
system.mem_ctrls1.rdPerTurnAround::384-511            9      0.02%     99.97% # Reads before turning the bus around for writes
system.mem_ctrls1.rdPerTurnAround::512-639            7      0.02%     99.99% # Reads before turning the bus around for writes
system.mem_ctrls1.rdPerTurnAround::640-767            4      0.01%    100.00% # Reads before turning the bus around for writes
system.mem_ctrls1.rdPerTurnAround::1152-1279            1      0.00%    100.00% # Reads before turning the bus around for writes
system.mem_ctrls1.rdPerTurnAround::2816-2943            1      0.00%    100.00% # Reads before turning the bus around for writes
system.mem_ctrls1.rdPerTurnAround::total        45041                       # Reads before turning the bus around for writes
system.mem_ctrls1.wrPerTurnAround::samples        45041                       # Writes before turning the bus around for reads
system.mem_ctrls1.wrPerTurnAround::mean      6.729091                       # Writes before turning the bus around for reads
system.mem_ctrls1.wrPerTurnAround::gmean     6.205456                       # Writes before turning the bus around for reads
system.mem_ctrls1.wrPerTurnAround::stdev     3.206227                       # Writes before turning the bus around for reads
system.mem_ctrls1.wrPerTurnAround::4-7          34456     76.50%     76.50% # Writes before turning the bus around for reads
system.mem_ctrls1.wrPerTurnAround::8-11          5411     12.01%     88.51% # Writes before turning the bus around for reads
system.mem_ctrls1.wrPerTurnAround::12-15         2812      6.24%     94.76% # Writes before turning the bus around for reads
system.mem_ctrls1.wrPerTurnAround::16-19         2362      5.24%    100.00% # Writes before turning the bus around for reads
system.mem_ctrls1.wrPerTurnAround::total        45041                       # Writes before turning the bus around for reads
system.mem_ctrls1.totQLat                 75052171762                       # Total ticks spent queuing
system.mem_ctrls1.totMemAccLat            87257615512                       # Total ticks spent from burst creation until serviced by the DRAM
system.mem_ctrls1.totBusLat                3254785000                       # Total ticks spent in databus transfers
system.mem_ctrls1.avgQLat                   115295.13                       # Average queueing delay per DRAM burst
system.mem_ctrls1.avgBusLat                   5000.00                       # Average bus latency per DRAM burst
system.mem_ctrls1.avgMemAccLat              134045.13                       # Average memory access latency per DRAM burst
system.mem_ctrls1.avgRdBW                      348.32                       # Average DRAM read bandwidth in MiByte/s
system.mem_ctrls1.avgWrBW                      162.18                       # Average achieved write bandwidth in MiByte/s
system.mem_ctrls1.avgRdBWSys                   348.51                       # Average system read bandwidth in MiByte/s
system.mem_ctrls1.avgWrBWSys                   162.18                       # Average system write bandwidth in MiByte/s
system.mem_ctrls1.peakBW                     12800.00                       # Theoretical peak bandwidth in MiByte/s
system.mem_ctrls1.busUtil                        3.99                       # Data bus utilization in percentage
system.mem_ctrls1.busUtilRead                    2.72                       # Data bus utilization in percentage for reads
system.mem_ctrls1.busUtilWrite                   1.27                       # Data bus utilization in percentage for writes
system.mem_ctrls1.avgRdQLen                      1.76                       # Average read queue length when enqueuing
system.mem_ctrls1.avgWrQLen                      3.03                       # Average write queue length when enqueuing
system.mem_ctrls1.readRowHits                  482369                       # Number of row buffer hits during reads
system.mem_ctrls1.writeRowHits                 168770                       # Number of row buffer hits during writes
system.mem_ctrls1.readRowHitRate                74.10                       # Row buffer hit rate for reads
system.mem_ctrls1.writeRowHitRate               55.68                       # Row buffer hit rate for writes
system.mem_ctrls1.avgGap                    125321.07                       # Average gap between requests
system.mem_ctrls1.pageHitRate                   68.25                       # Row buffer hit rate, read and write combined
system.mem_ctrls1.memoryStateTime::IDLE   20698091000                       # Time in different power states
system.mem_ctrls1.memoryStateTime::REF     3993860000                       # Time in different power states
system.mem_ctrls1.memoryStateTime::PRE_PDN            0                       # Time in different power states
system.mem_ctrls1.memoryStateTime::ACT    94912909000                       # Time in different power states
system.mem_ctrls1.memoryStateTime::ACT_PDN            0                       # Time in different power states
system.mem_ctrls1.actEnergy::0             1152960480                       # Energy for activate commands per rank (pJ)
system.mem_ctrls1.actEnergy::1             1136918160                       # Energy for activate commands per rank (pJ)
system.mem_ctrls1.preEnergy::0              629095500                       # Energy for precharge commands per rank (pJ)
system.mem_ctrls1.preEnergy::1              620342250                       # Energy for precharge commands per rank (pJ)
system.mem_ctrls1.readEnergy::0            2546317800                       # Energy for read commands per rank (pJ)
system.mem_ctrls1.readEnergy::1            2531061000                       # Energy for read commands per rank (pJ)
system.mem_ctrls1.writeEnergy::0            984759120                       # Energy for write commands per rank (pJ)
system.mem_ctrls1.writeEnergy::1            979192800                       # Energy for write commands per rank (pJ)
system.mem_ctrls1.refreshEnergy::0         7811990160                       # Energy for refresh commands per rank (pJ)
system.mem_ctrls1.refreshEnergy::1         7811990160                       # Energy for refresh commands per rank (pJ)
system.mem_ctrls1.actBackEnergy::0        48093089085                       # Energy for active background per rank (pJ)
system.mem_ctrls1.actBackEnergy::1        47866384125                       # Energy for active background per rank (pJ)
system.mem_ctrls1.preBackEnergy::0        29575987500                       # Energy for precharge background per rank (pJ)
system.mem_ctrls1.preBackEnergy::1        29774851500                       # Energy for precharge background per rank (pJ)
system.mem_ctrls1.totalEnergy::0          90794199645                       # Total energy per rank (pJ)
system.mem_ctrls1.totalEnergy::1          90720739995                       # Total energy per rank (pJ)
system.mem_ctrls1.averagePower::0          759.118067                       # Core power per rank (mW)
system.mem_ctrls1.averagePower::1          758.503880                       # Core power per rank (mW)
system.mem_ctrls2.bytes_read::ruby.dir_cntrl2     41620800                       # Number of bytes read from this memory
system.mem_ctrls2.bytes_read::total          41620800                       # Number of bytes read from this memory
system.mem_ctrls2.bytes_written::ruby.dir_cntrl2     19384576                       # Number of bytes written to this memory
system.mem_ctrls2.bytes_written::total       19384576                       # Number of bytes written to this memory
system.mem_ctrls2.num_reads::ruby.dir_cntrl2       650325                       # Number of read requests responded to by this memory
system.mem_ctrls2.num_reads::total             650325                       # Number of read requests responded to by this memory
system.mem_ctrls2.num_writes::ruby.dir_cntrl2       302884                       # Number of write requests responded to by this memory
system.mem_ctrls2.num_writes::total            302884                       # Number of write requests responded to by this memory
system.mem_ctrls2.bw_read::ruby.dir_cntrl2    347981215                       # Total read bandwidth from this memory (bytes/s)
system.mem_ctrls2.bw_read::total            347981215                       # Total read bandwidth from this memory (bytes/s)
system.mem_ctrls2.bw_write::ruby.dir_cntrl2    162069645                       # Write bandwidth from this memory (bytes/s)
system.mem_ctrls2.bw_write::total           162069645                       # Write bandwidth from this memory (bytes/s)
system.mem_ctrls2.bw_total::ruby.dir_cntrl2    510050860                       # Total bandwidth to/from this memory (bytes/s)
system.mem_ctrls2.bw_total::total           510050860                       # Total bandwidth to/from this memory (bytes/s)
system.mem_ctrls2.readReqs                     650325                       # Number of read requests accepted
system.mem_ctrls2.writeReqs                    302884                       # Number of write requests accepted
system.mem_ctrls2.readBursts                   650325                       # Number of DRAM read bursts, including those serviced by the write queue
system.mem_ctrls2.writeBursts                  302884                       # Number of DRAM write bursts, including those merged in the write queue
system.mem_ctrls2.bytesReadDRAM              41603200                       # Total number of bytes read from DRAM
system.mem_ctrls2.bytesReadWrQ                  17600                       # Total number of bytes read from write queue
system.mem_ctrls2.bytesWritten               19384512                       # Total number of bytes written to DRAM
system.mem_ctrls2.bytesReadSys               41620800                       # Total read bytes from the system interface side
system.mem_ctrls2.bytesWrittenSys            19384576                       # Total written bytes from the system interface side
system.mem_ctrls2.servicedByWrQ                   275                       # Number of DRAM read bursts serviced by the write queue
system.mem_ctrls2.mergedWrBursts                    0                       # Number of DRAM write bursts merged with an existing one
system.mem_ctrls2.neitherReadNorWriteReqs            0                       # Number of requests that are neither read nor write
system.mem_ctrls2.perBankRdBursts::0            40771                       # Per bank write bursts
system.mem_ctrls2.perBankRdBursts::1            40688                       # Per bank write bursts
system.mem_ctrls2.perBankRdBursts::2            40348                       # Per bank write bursts
system.mem_ctrls2.perBankRdBursts::3            40466                       # Per bank write bursts
system.mem_ctrls2.perBankRdBursts::4            40595                       # Per bank write bursts
system.mem_ctrls2.perBankRdBursts::5            40198                       # Per bank write bursts
system.mem_ctrls2.perBankRdBursts::6            41760                       # Per bank write bursts
system.mem_ctrls2.perBankRdBursts::7            41115                       # Per bank write bursts
system.mem_ctrls2.perBankRdBursts::8            40461                       # Per bank write bursts
system.mem_ctrls2.perBankRdBursts::9            40493                       # Per bank write bursts
system.mem_ctrls2.perBankRdBursts::10           40282                       # Per bank write bursts
system.mem_ctrls2.perBankRdBursts::11           40575                       # Per bank write bursts
system.mem_ctrls2.perBankRdBursts::12           40394                       # Per bank write bursts
system.mem_ctrls2.perBankRdBursts::13           40048                       # Per bank write bursts
system.mem_ctrls2.perBankRdBursts::14           40953                       # Per bank write bursts
system.mem_ctrls2.perBankRdBursts::15           40903                       # Per bank write bursts
system.mem_ctrls2.perBankWrBursts::0            18928                       # Per bank write bursts
system.mem_ctrls2.perBankWrBursts::1            18851                       # Per bank write bursts
system.mem_ctrls2.perBankWrBursts::2            18955                       # Per bank write bursts
system.mem_ctrls2.perBankWrBursts::3            18890                       # Per bank write bursts
system.mem_ctrls2.perBankWrBursts::4            18894                       # Per bank write bursts
system.mem_ctrls2.perBankWrBursts::5            18843                       # Per bank write bursts
system.mem_ctrls2.perBankWrBursts::6            19176                       # Per bank write bursts
system.mem_ctrls2.perBankWrBursts::7            19284                       # Per bank write bursts
system.mem_ctrls2.perBankWrBursts::8            18843                       # Per bank write bursts
system.mem_ctrls2.perBankWrBursts::9            18953                       # Per bank write bursts
system.mem_ctrls2.perBankWrBursts::10           18866                       # Per bank write bursts
system.mem_ctrls2.perBankWrBursts::11           18817                       # Per bank write bursts
system.mem_ctrls2.perBankWrBursts::12           18839                       # Per bank write bursts
system.mem_ctrls2.perBankWrBursts::13           18721                       # Per bank write bursts
system.mem_ctrls2.perBankWrBursts::14           19021                       # Per bank write bursts
system.mem_ctrls2.perBankWrBursts::15           19002                       # Per bank write bursts
system.mem_ctrls2.numRdRetry                    63296                       # Number of times read queue was full causing retry
system.mem_ctrls2.numWrRetry                    12097                       # Number of times write queue was full causing retry
system.mem_ctrls2.totGap                 119605664000                       # Total gap between requests
system.mem_ctrls2.readPktSize::0                    0                       # Read request sizes (log2)
system.mem_ctrls2.readPktSize::1                    0                       # Read request sizes (log2)
system.mem_ctrls2.readPktSize::2                    0                       # Read request sizes (log2)
system.mem_ctrls2.readPktSize::3                    0                       # Read request sizes (log2)
system.mem_ctrls2.readPktSize::4                    0                       # Read request sizes (log2)
system.mem_ctrls2.readPktSize::5                    0                       # Read request sizes (log2)
system.mem_ctrls2.readPktSize::6               650325                       # Read request sizes (log2)
system.mem_ctrls2.writePktSize::0                   0                       # Write request sizes (log2)
system.mem_ctrls2.writePktSize::1                   0                       # Write request sizes (log2)
system.mem_ctrls2.writePktSize::2                   0                       # Write request sizes (log2)
system.mem_ctrls2.writePktSize::3                   0                       # Write request sizes (log2)
system.mem_ctrls2.writePktSize::4                   0                       # Write request sizes (log2)
system.mem_ctrls2.writePktSize::5                   0                       # Write request sizes (log2)
system.mem_ctrls2.writePktSize::6              302884                       # Write request sizes (log2)
system.mem_ctrls2.rdQLenPdf::0                 170755                       # What read queue length does an incoming req see
system.mem_ctrls2.rdQLenPdf::1                  21579                       # What read queue length does an incoming req see
system.mem_ctrls2.rdQLenPdf::2                  22258                       # What read queue length does an incoming req see
system.mem_ctrls2.rdQLenPdf::3                  22804                       # What read queue length does an incoming req see
system.mem_ctrls2.rdQLenPdf::4                  22923                       # What read queue length does an incoming req see
system.mem_ctrls2.rdQLenPdf::5                  22899                       # What read queue length does an incoming req see
system.mem_ctrls2.rdQLenPdf::6                  22678                       # What read queue length does an incoming req see
system.mem_ctrls2.rdQLenPdf::7                  22100                       # What read queue length does an incoming req see
system.mem_ctrls2.rdQLenPdf::8                  20947                       # What read queue length does an incoming req see
system.mem_ctrls2.rdQLenPdf::9                  19918                       # What read queue length does an incoming req see
system.mem_ctrls2.rdQLenPdf::10                 18690                       # What read queue length does an incoming req see
system.mem_ctrls2.rdQLenPdf::11                 17466                       # What read queue length does an incoming req see
system.mem_ctrls2.rdQLenPdf::12                 16214                       # What read queue length does an incoming req see
system.mem_ctrls2.rdQLenPdf::13                 15129                       # What read queue length does an incoming req see
system.mem_ctrls2.rdQLenPdf::14                 14078                       # What read queue length does an incoming req see
system.mem_ctrls2.rdQLenPdf::15                 13047                       # What read queue length does an incoming req see
system.mem_ctrls2.rdQLenPdf::16                 11977                       # What read queue length does an incoming req see
system.mem_ctrls2.rdQLenPdf::17                 11143                       # What read queue length does an incoming req see
system.mem_ctrls2.rdQLenPdf::18                 10183                       # What read queue length does an incoming req see
system.mem_ctrls2.rdQLenPdf::19                  9587                       # What read queue length does an incoming req see
system.mem_ctrls2.rdQLenPdf::20                  8871                       # What read queue length does an incoming req see
system.mem_ctrls2.rdQLenPdf::21                  8289                       # What read queue length does an incoming req see
system.mem_ctrls2.rdQLenPdf::22                  7809                       # What read queue length does an incoming req see
system.mem_ctrls2.rdQLenPdf::23                  7394                       # What read queue length does an incoming req see
system.mem_ctrls2.rdQLenPdf::24                  6962                       # What read queue length does an incoming req see
system.mem_ctrls2.rdQLenPdf::25                  6461                       # What read queue length does an incoming req see
system.mem_ctrls2.rdQLenPdf::26                  6266                       # What read queue length does an incoming req see
system.mem_ctrls2.rdQLenPdf::27                  6045                       # What read queue length does an incoming req see
system.mem_ctrls2.rdQLenPdf::28                  5692                       # What read queue length does an incoming req see
system.mem_ctrls2.rdQLenPdf::29                  5497                       # What read queue length does an incoming req see
system.mem_ctrls2.rdQLenPdf::30                  5473                       # What read queue length does an incoming req see
system.mem_ctrls2.rdQLenPdf::31                 68916                       # What read queue length does an incoming req see
system.mem_ctrls2.wrQLenPdf::0                  43133                       # What write queue length does an incoming req see
system.mem_ctrls2.wrQLenPdf::1                  48376                       # What write queue length does an incoming req see
system.mem_ctrls2.wrQLenPdf::2                  51069                       # What write queue length does an incoming req see
system.mem_ctrls2.wrQLenPdf::3                  52355                       # What write queue length does an incoming req see
system.mem_ctrls2.wrQLenPdf::4                  52474                       # What write queue length does an incoming req see
system.mem_ctrls2.wrQLenPdf::5                  17246                       # What write queue length does an incoming req see
system.mem_ctrls2.wrQLenPdf::6                  16185                       # What write queue length does an incoming req see
system.mem_ctrls2.wrQLenPdf::7                  22046                       # What write queue length does an incoming req see
system.mem_ctrls2.bytesPerActivate::samples       301238                       # Bytes accessed per row activation
system.mem_ctrls2.bytesPerActivate::mean   202.455414                       # Bytes accessed per row activation
system.mem_ctrls2.bytesPerActivate::gmean   154.882846                       # Bytes accessed per row activation
system.mem_ctrls2.bytesPerActivate::stdev   152.037186                       # Bytes accessed per row activation
system.mem_ctrls2.bytesPerActivate::0-127        99133     32.91%     32.91% # Bytes accessed per row activation
system.mem_ctrls2.bytesPerActivate::128-255        90209     29.95%     62.85% # Bytes accessed per row activation
system.mem_ctrls2.bytesPerActivate::256-383        73277     24.33%     87.18% # Bytes accessed per row activation
system.mem_ctrls2.bytesPerActivate::384-511        19084      6.34%     93.52% # Bytes accessed per row activation
system.mem_ctrls2.bytesPerActivate::512-639        14275      4.74%     98.25% # Bytes accessed per row activation
system.mem_ctrls2.bytesPerActivate::640-767         2736      0.91%     99.16% # Bytes accessed per row activation
system.mem_ctrls2.bytesPerActivate::768-895         1275      0.42%     99.59% # Bytes accessed per row activation
system.mem_ctrls2.bytesPerActivate::896-1023          859      0.29%     99.87% # Bytes accessed per row activation
system.mem_ctrls2.bytesPerActivate::1024-1151          390      0.13%    100.00% # Bytes accessed per row activation
system.mem_ctrls2.bytesPerActivate::total       301238                       # Bytes accessed per row activation
system.mem_ctrls2.rdPerTurnAround::samples        45034                       # Reads before turning the bus around for writes
system.mem_ctrls2.rdPerTurnAround::mean     14.434605                       # Reads before turning the bus around for writes
system.mem_ctrls2.rdPerTurnAround::stdev    27.843736                       # Reads before turning the bus around for writes
system.mem_ctrls2.rdPerTurnAround::0-127        44749     99.37%     99.37% # Reads before turning the bus around for writes
system.mem_ctrls2.rdPerTurnAround::128-255          229      0.51%     99.88% # Reads before turning the bus around for writes
system.mem_ctrls2.rdPerTurnAround::256-383           39      0.09%     99.96% # Reads before turning the bus around for writes
system.mem_ctrls2.rdPerTurnAround::384-511            6      0.01%     99.98% # Reads before turning the bus around for writes
system.mem_ctrls2.rdPerTurnAround::512-639            7      0.02%     99.99% # Reads before turning the bus around for writes
system.mem_ctrls2.rdPerTurnAround::640-767            2      0.00%    100.00% # Reads before turning the bus around for writes
system.mem_ctrls2.rdPerTurnAround::1152-1279            1      0.00%    100.00% # Reads before turning the bus around for writes
system.mem_ctrls2.rdPerTurnAround::2816-2943            1      0.00%    100.00% # Reads before turning the bus around for writes
system.mem_ctrls2.rdPerTurnAround::total        45034                       # Reads before turning the bus around for writes
system.mem_ctrls2.wrPerTurnAround::samples        45034                       # Writes before turning the bus around for reads
system.mem_ctrls2.wrPerTurnAround::mean      6.725652                       # Writes before turning the bus around for reads
system.mem_ctrls2.wrPerTurnAround::gmean     6.202590                       # Writes before turning the bus around for reads
system.mem_ctrls2.wrPerTurnAround::stdev     3.202891                       # Writes before turning the bus around for reads
system.mem_ctrls2.wrPerTurnAround::4-7          34474     76.55%     76.55% # Writes before turning the bus around for reads
system.mem_ctrls2.wrPerTurnAround::8-11          5385     11.96%     88.51% # Writes before turning the bus around for reads
system.mem_ctrls2.wrPerTurnAround::12-15         2851      6.33%     94.84% # Writes before turning the bus around for reads
system.mem_ctrls2.wrPerTurnAround::16-19         2324      5.16%    100.00% # Writes before turning the bus around for reads
system.mem_ctrls2.wrPerTurnAround::total        45034                       # Writes before turning the bus around for reads
system.mem_ctrls2.totQLat                 74766146976                       # Total ticks spent queuing
system.mem_ctrls2.totMemAccLat            86954584476                       # Total ticks spent from burst creation until serviced by the DRAM
system.mem_ctrls2.totBusLat                3250250000                       # Total ticks spent in databus transfers
system.mem_ctrls2.avgQLat                   115015.99                       # Average queueing delay per DRAM burst
system.mem_ctrls2.avgBusLat                   5000.00                       # Average bus latency per DRAM burst
system.mem_ctrls2.avgMemAccLat              133765.99                       # Average memory access latency per DRAM burst
system.mem_ctrls2.avgRdBW                      347.83                       # Average DRAM read bandwidth in MiByte/s
system.mem_ctrls2.avgWrBW                      162.07                       # Average achieved write bandwidth in MiByte/s
system.mem_ctrls2.avgRdBWSys                   347.98                       # Average system read bandwidth in MiByte/s
system.mem_ctrls2.avgWrBWSys                   162.07                       # Average system write bandwidth in MiByte/s
system.mem_ctrls2.peakBW                     12800.00                       # Theoretical peak bandwidth in MiByte/s
system.mem_ctrls2.busUtil                        3.98                       # Data bus utilization in percentage
system.mem_ctrls2.busUtilRead                    2.72                       # Data bus utilization in percentage for reads
system.mem_ctrls2.busUtilWrite                   1.27                       # Data bus utilization in percentage for writes
system.mem_ctrls2.avgRdQLen                      1.75                       # Average read queue length when enqueuing
system.mem_ctrls2.avgWrQLen                      3.03                       # Average write queue length when enqueuing
system.mem_ctrls2.readRowHits                  482385                       # Number of row buffer hits during reads
system.mem_ctrls2.writeRowHits                 169304                       # Number of row buffer hits during writes
system.mem_ctrls2.readRowHitRate                74.21                       # Row buffer hit rate for reads
system.mem_ctrls2.writeRowHitRate               55.90                       # Row buffer hit rate for writes
system.mem_ctrls2.avgGap                    125476.85                       # Average gap between requests
system.mem_ctrls2.pageHitRate                   68.39                       # Row buffer hit rate, read and write combined
system.mem_ctrls2.memoryStateTime::IDLE   20823431250                       # Time in different power states
system.mem_ctrls2.memoryStateTime::REF     3993860000                       # Time in different power states
system.mem_ctrls2.memoryStateTime::PRE_PDN            0                       # Time in different power states
system.mem_ctrls2.memoryStateTime::ACT    94787692250                       # Time in different power states
system.mem_ctrls2.memoryStateTime::ACT_PDN            0                       # Time in different power states
system.mem_ctrls2.actEnergy::0             1146186720                       # Energy for activate commands per rank (pJ)
system.mem_ctrls2.actEnergy::1             1131165000                       # Energy for activate commands per rank (pJ)
system.mem_ctrls2.preEnergy::0              625399500                       # Energy for precharge commands per rank (pJ)
system.mem_ctrls2.preEnergy::1              617203125                       # Energy for precharge commands per rank (pJ)
system.mem_ctrls2.readEnergy::0            2542324200                       # Energy for read commands per rank (pJ)
system.mem_ctrls2.readEnergy::1            2528042400                       # Energy for read commands per rank (pJ)
system.mem_ctrls2.writeEnergy::0            983780640                       # Energy for write commands per rank (pJ)
system.mem_ctrls2.writeEnergy::1            978868800                       # Energy for write commands per rank (pJ)
system.mem_ctrls2.refreshEnergy::0         7811990160                       # Energy for refresh commands per rank (pJ)
system.mem_ctrls2.refreshEnergy::1         7811990160                       # Energy for refresh commands per rank (pJ)
system.mem_ctrls2.actBackEnergy::0        48337291620                       # Energy for active background per rank (pJ)
system.mem_ctrls2.actBackEnergy::1        47828204100                       # Energy for active background per rank (pJ)
system.mem_ctrls2.preBackEnergy::0        29361774750                       # Energy for precharge background per rank (pJ)
system.mem_ctrls2.preBackEnergy::1        29808342750                       # Energy for precharge background per rank (pJ)
system.mem_ctrls2.totalEnergy::0          90808747590                       # Total energy per rank (pJ)
system.mem_ctrls2.totalEnergy::1          90703816335                       # Total energy per rank (pJ)
system.mem_ctrls2.averagePower::0          759.239700                       # Core power per rank (mW)
system.mem_ctrls2.averagePower::1          758.362384                       # Core power per rank (mW)
system.mem_ctrls3.bytes_read::ruby.dir_cntrl3     41641344                       # Number of bytes read from this memory
system.mem_ctrls3.bytes_read::total          41641344                       # Number of bytes read from this memory
system.mem_ctrls3.bytes_written::ruby.dir_cntrl3     19399296                       # Number of bytes written to this memory
system.mem_ctrls3.bytes_written::total       19399296                       # Number of bytes written to this memory
system.mem_ctrls3.num_reads::ruby.dir_cntrl3       650646                       # Number of read requests responded to by this memory
system.mem_ctrls3.num_reads::total             650646                       # Number of read requests responded to by this memory
system.mem_ctrls3.num_writes::ruby.dir_cntrl3       303114                       # Number of write requests responded to by this memory
system.mem_ctrls3.num_writes::total            303114                       # Number of write requests responded to by this memory
system.mem_ctrls3.bw_read::ruby.dir_cntrl3    348152978                       # Total read bandwidth from this memory (bytes/s)
system.mem_ctrls3.bw_read::total            348152978                       # Total read bandwidth from this memory (bytes/s)
system.mem_ctrls3.bw_write::ruby.dir_cntrl3    162192716                       # Write bandwidth from this memory (bytes/s)
system.mem_ctrls3.bw_write::total           162192716                       # Write bandwidth from this memory (bytes/s)
system.mem_ctrls3.bw_total::ruby.dir_cntrl3    510345694                       # Total bandwidth to/from this memory (bytes/s)
system.mem_ctrls3.bw_total::total           510345694                       # Total bandwidth to/from this memory (bytes/s)
system.mem_ctrls3.readReqs                     650647                       # Number of read requests accepted
system.mem_ctrls3.writeReqs                    303114                       # Number of write requests accepted
system.mem_ctrls3.readBursts                   650647                       # Number of DRAM read bursts, including those serviced by the write queue
system.mem_ctrls3.writeBursts                  303114                       # Number of DRAM write bursts, including those merged in the write queue
system.mem_ctrls3.bytesReadDRAM              41618816                       # Total number of bytes read from DRAM
system.mem_ctrls3.bytesReadWrQ                  22592                       # Total number of bytes read from write queue
system.mem_ctrls3.bytesWritten               19399232                       # Total number of bytes written to DRAM
system.mem_ctrls3.bytesReadSys               41641408                       # Total read bytes from the system interface side
system.mem_ctrls3.bytesWrittenSys            19399296                       # Total written bytes from the system interface side
system.mem_ctrls3.servicedByWrQ                   353                       # Number of DRAM read bursts serviced by the write queue
system.mem_ctrls3.mergedWrBursts                    0                       # Number of DRAM write bursts merged with an existing one
system.mem_ctrls3.neitherReadNorWriteReqs            0                       # Number of requests that are neither read nor write
system.mem_ctrls3.perBankRdBursts::0            40758                       # Per bank write bursts
system.mem_ctrls3.perBankRdBursts::1            40622                       # Per bank write bursts
system.mem_ctrls3.perBankRdBursts::2            40137                       # Per bank write bursts
system.mem_ctrls3.perBankRdBursts::3            40409                       # Per bank write bursts
system.mem_ctrls3.perBankRdBursts::4            40420                       # Per bank write bursts
system.mem_ctrls3.perBankRdBursts::5            40533                       # Per bank write bursts
system.mem_ctrls3.perBankRdBursts::6            41562                       # Per bank write bursts
system.mem_ctrls3.perBankRdBursts::7            41361                       # Per bank write bursts
system.mem_ctrls3.perBankRdBursts::8            40446                       # Per bank write bursts
system.mem_ctrls3.perBankRdBursts::9            40342                       # Per bank write bursts
system.mem_ctrls3.perBankRdBursts::10           40254                       # Per bank write bursts
system.mem_ctrls3.perBankRdBursts::11           40473                       # Per bank write bursts
system.mem_ctrls3.perBankRdBursts::12           40333                       # Per bank write bursts
system.mem_ctrls3.perBankRdBursts::13           40327                       # Per bank write bursts
system.mem_ctrls3.perBankRdBursts::14           41018                       # Per bank write bursts
system.mem_ctrls3.perBankRdBursts::15           41299                       # Per bank write bursts
system.mem_ctrls3.perBankWrBursts::0            18939                       # Per bank write bursts
system.mem_ctrls3.perBankWrBursts::1            18836                       # Per bank write bursts
system.mem_ctrls3.perBankWrBursts::2            18889                       # Per bank write bursts
system.mem_ctrls3.perBankWrBursts::3            18892                       # Per bank write bursts
system.mem_ctrls3.perBankWrBursts::4            18905                       # Per bank write bursts
system.mem_ctrls3.perBankWrBursts::5            18939                       # Per bank write bursts
system.mem_ctrls3.perBankWrBursts::6            19175                       # Per bank write bursts
system.mem_ctrls3.perBankWrBursts::7            19315                       # Per bank write bursts
system.mem_ctrls3.perBankWrBursts::8            18917                       # Per bank write bursts
system.mem_ctrls3.perBankWrBursts::9            18881                       # Per bank write bursts
system.mem_ctrls3.perBankWrBursts::10           18757                       # Per bank write bursts
system.mem_ctrls3.perBankWrBursts::11           18844                       # Per bank write bursts
system.mem_ctrls3.perBankWrBursts::12           18850                       # Per bank write bursts
system.mem_ctrls3.perBankWrBursts::13           18834                       # Per bank write bursts
system.mem_ctrls3.perBankWrBursts::14           19073                       # Per bank write bursts
system.mem_ctrls3.perBankWrBursts::15           19067                       # Per bank write bursts
system.mem_ctrls3.numRdRetry                    65702                       # Number of times read queue was full causing retry
system.mem_ctrls3.numWrRetry                    11393                       # Number of times write queue was full causing retry
system.mem_ctrls3.totGap                 119605713000                       # Total gap between requests
system.mem_ctrls3.readPktSize::0                    0                       # Read request sizes (log2)
system.mem_ctrls3.readPktSize::1                    0                       # Read request sizes (log2)
system.mem_ctrls3.readPktSize::2                    0                       # Read request sizes (log2)
system.mem_ctrls3.readPktSize::3                    0                       # Read request sizes (log2)
system.mem_ctrls3.readPktSize::4                    0                       # Read request sizes (log2)
system.mem_ctrls3.readPktSize::5                    0                       # Read request sizes (log2)
system.mem_ctrls3.readPktSize::6               650647                       # Read request sizes (log2)
system.mem_ctrls3.writePktSize::0                   0                       # Write request sizes (log2)
system.mem_ctrls3.writePktSize::1                   0                       # Write request sizes (log2)
system.mem_ctrls3.writePktSize::2                   0                       # Write request sizes (log2)
system.mem_ctrls3.writePktSize::3                   0                       # Write request sizes (log2)
system.mem_ctrls3.writePktSize::4                   0                       # Write request sizes (log2)
system.mem_ctrls3.writePktSize::5                   0                       # Write request sizes (log2)
system.mem_ctrls3.writePktSize::6              303114                       # Write request sizes (log2)
system.mem_ctrls3.rdQLenPdf::0                 170210                       # What read queue length does an incoming req see
system.mem_ctrls3.rdQLenPdf::1                  21398                       # What read queue length does an incoming req see
system.mem_ctrls3.rdQLenPdf::2                  21531                       # What read queue length does an incoming req see
system.mem_ctrls3.rdQLenPdf::3                  22091                       # What read queue length does an incoming req see
system.mem_ctrls3.rdQLenPdf::4                  22699                       # What read queue length does an incoming req see
system.mem_ctrls3.rdQLenPdf::5                  22846                       # What read queue length does an incoming req see
system.mem_ctrls3.rdQLenPdf::6                  22570                       # What read queue length does an incoming req see
system.mem_ctrls3.rdQLenPdf::7                  22068                       # What read queue length does an incoming req see
system.mem_ctrls3.rdQLenPdf::8                  21253                       # What read queue length does an incoming req see
system.mem_ctrls3.rdQLenPdf::9                  20073                       # What read queue length does an incoming req see
system.mem_ctrls3.rdQLenPdf::10                 18708                       # What read queue length does an incoming req see
system.mem_ctrls3.rdQLenPdf::11                 17244                       # What read queue length does an incoming req see
[...]
system.ruby.L2Cache_Controller.MT_MB.L2_Replacement_clean::total            4                      
system.ruby.L2Cache_Controller.MT_MB.Exclusive_Unblock |      218412      5.22%      5.22% |      128355      3.07%      8.28% |      127115      3.04%     11.32% |      129432      3.09%     14.41% |      127478      3.05%     17.46% |      126714      3.03%     20.48% |      126930      3.03%     23.51% |      126521      3.02%     26.54% |      126862      3.03%     29.57% |      127423      3.04%     32.61% |      129066      3.08%     35.69% |      127763      3.05%     38.75% |      126392      3.02%     41.76% |      126709      3.03%     44.79% |      125351      2.99%     47.79% |      125509      3.00%     50.78% |      126529      3.02%     53.81% |      126381      3.02%     56.82% |      126560      3.02%     59.85% |      126544      3.02%     62.87% |      126601      3.02%     65.89% |      140921      3.37%     69.26% |      134494      3.21%     72.47% |      125403      3.00%     75.47% |      125964      3.01%     78.48% |      126282      3.02%     81.49% |      126211      3.01%     84.51% |      126217      3.01%     87.52% |      127666      3.05%     90.57% |      126727      3.03%     93.60% |      130312      3.11%     96.71% |      137622      3.29%    100.00%
system.ruby.L2Cache_Controller.MT_MB.Exclusive_Unblock::total      4186466                      
system.ruby.L2Cache_Controller.MT_IIB.L1_GETS |           0      0.00%      0.00% |           0      0.00%      0.00% |           1      7.69%      7.69% |           0      0.00%      7.69% |           1      7.69%     15.38% |           0      0.00%     15.38% |           2     15.38%     30.77% |           0      0.00%     30.77% |           4     30.77%     61.54% |           0      0.00%     61.54% |           1      7.69%     69.23% |           0      0.00%     69.23% |           0      0.00%     69.23% |           0      0.00%     69.23% |           1      7.69%     76.92% |           0      0.00%     76.92% |           2     15.38%     92.31% |           0      0.00%     92.31% |           0      0.00%     92.31% |           0      0.00%     92.31% |           0      0.00%     92.31% |           0      0.00%     92.31% |           0      0.00%     92.31% |           0      0.00%     92.31% |           1      7.69%    100.00% |           0      0.00%    100.00% |           0      0.00%    100.00% |           0      0.00%    100.00% |           0      0.00%    100.00% |           0      0.00%    100.00% |           0      0.00%    100.00% |           0      0.00%    100.00%
system.ruby.L2Cache_Controller.MT_IIB.L1_GETS::total           13                      
system.ruby.L2Cache_Controller.MT_IIB.L1_PUTX |          12      1.32%      1.32% |          18      1.98%      3.30% |          15      1.65%      4.95% |          21      2.31%      7.26% |          23      2.53%      9.79% |          27      2.97%     12.76% |          20      2.20%     14.96% |          16      1.76%     16.72% |          21      2.31%     19.03% |          16      1.76%     20.79% |          25      2.75%     23.54% |          26      2.86%     26.40% |          22      2.42%     28.82% |          35      3.85%     32.67% |          30      3.30%     35.97% |          26      2.86%     38.83% |          33      3.63%     42.46% |          35      3.85%     46.31% |          36      3.96%     50.28% |          45      4.95%     55.23% |          24      2.64%     57.87% |          38      4.18%     62.05% |          42      4.62%     66.67% |          45      4.95%     71.62% |          40      4.40%     76.02% |          40      4.40%     80.42% |          34      3.74%     84.16% |          42      4.62%     88.78% |          21      2.31%     91.09% |          28      3.08%     94.17% |          29      3.19%     97.36% |          24      2.64%    100.00%
system.ruby.L2Cache_Controller.MT_IIB.L1_PUTX::total          909                      
system.ruby.L2Cache_Controller.MT_IIB.WB_Data |           0      0.00%      0.00% |           0      0.00%      0.00% |           0      0.00%      0.00% |           0      0.00%      0.00% |           0      0.00%      0.00% |           0      0.00%      0.00% |           0      0.00%      0.00% |           0      0.00%      0.00% |           0      0.00%      0.00% |           0      0.00%      0.00% |           0      0.00%      0.00% |           0      0.00%      0.00% |           0      0.00%      0.00% |           0      0.00%      0.00% |           0      0.00%      0.00% |           0      0.00%      0.00% |           0      0.00%      0.00% |           0      0.00%      0.00% |           0      0.00%      0.00% |           0      0.00%      0.00% |           0      0.00%      0.00% |           2     40.00%     40.00% |           0      0.00%     40.00% |           0      0.00%     40.00% |           0      0.00%     40.00% |           0      0.00%     40.00% |           1     20.00%     60.00% |           0      0.00%     60.00% |           0      0.00%     60.00% |           0      0.00%     60.00% |           0      0.00%     60.00% |           2     40.00%    100.00%
system.ruby.L2Cache_Controller.MT_IIB.WB_Data::total            5                      
system.ruby.L2Cache_Controller.MT_IIB.WB_Data_clean |        1385      3.19%      3.19% |        1421      3.28%      6.47% |        1405      3.24%      9.71% |        1402      3.23%     12.94% |        1388      3.20%     16.15% |        1364      3.15%     19.29% |        1242      2.86%     22.16% |        1154      2.66%     24.82% |        1142      2.63%     27.45% |        1208      2.79%     30.24% |        1326      3.06%     33.29% |        1337      3.08%     36.38% |        1401      3.23%     39.61% |        1349      3.11%     42.72% |        1251      2.89%     45.61% |        1214      2.80%     48.41% |        1243      2.87%     51.27% |        1364      3.15%     54.42% |        1435      3.31%     57.73% |        1420      3.27%     61.00% |        1380      3.18%     64.18% |        1378      3.18%     67.36% |        1405      3.24%     70.60% |        1348      3.11%     73.71% |        1457      3.36%     77.07% |        1482      3.42%     80.49% |        1474      3.40%     83.89% |        1480      3.41%     87.30% |        1425      3.29%     90.59% |        1423      3.28%     93.87% |        1371      3.16%     97.03% |        1287      2.97%    100.00%
system.ruby.L2Cache_Controller.MT_IIB.WB_Data_clean::total        43361                      
system.ruby.L2Cache_Controller.MT_IIB.Unblock |          70      2.06%      2.06% |          60      1.77%      3.83% |         100      2.94%      6.77% |          89      2.62%      9.39% |         131      3.86%     13.25% |          97      2.86%     16.11% |          97      2.86%     18.96% |          87      2.56%     21.53% |         153      4.51%     26.03% |         131      3.86%     29.89% |         140      4.12%     34.01% |         107      3.15%     37.16% |          87      2.56%     39.72% |          90      2.65%     42.37% |         122      3.59%     45.97% |         109      3.21%     49.18% |         103      3.03%     52.21% |         102      3.00%     55.21% |         100      2.94%     58.16% |          82      2.41%     60.57% |         140      4.12%     64.69% |         127      3.74%     68.43% |         126      3.71%     72.14% |          92      2.71%     74.85% |          89      2.62%     77.47% |         100      2.94%     80.42% |         103      3.03%     83.45% |          90      2.65%     86.10% |         135      3.98%     90.08% |         121      3.56%     93.64% |         113      3.33%     96.97% |         103      3.03%    100.00%
system.ruby.L2Cache_Controller.MT_IIB.Unblock::total         3396                      
system.ruby.L2Cache_Controller.MT_IB.L1_PUTX |           0      0.00%      0.00% |           0      0.00%      0.00% |           0      0.00%      0.00% |           0      0.00%      0.00% |           0      0.00%      0.00% |           0      0.00%      0.00% |           0      0.00%      0.00% |           0      0.00%      0.00% |           0      0.00%      0.00% |           0      0.00%      0.00% |           0      0.00%      0.00% |           0      0.00%      0.00% |           0      0.00%      0.00% |           0      0.00%      0.00% |           0      0.00%      0.00% |           0      0.00%      0.00% |           0      0.00%      0.00% |           1     20.00%     20.00% |           0      0.00%     20.00% |           1     20.00%     40.00% |           0      0.00%     40.00% |           0      0.00%     40.00% |           0      0.00%     40.00% |           0      0.00%     40.00% |           0      0.00%     40.00% |           0      0.00%     40.00% |           0      0.00%     40.00% |           0      0.00%     40.00% |           1     20.00%     60.00% |           1     20.00%     80.00% |           0      0.00%     80.00% |           1     20.00%    100.00%
system.ruby.L2Cache_Controller.MT_IB.L1_PUTX::total            5                      
system.ruby.L2Cache_Controller.MT_IB.WB_Data_clean |          70      2.06%      2.06% |          60      1.77%      3.83% |         100      2.94%      6.77% |          89      2.62%      9.39% |         131      3.86%     13.25% |          97      2.86%     16.11% |          97      2.86%     18.96% |          87      2.56%     21.53% |         153      4.51%     26.03% |         131      3.86%     29.89% |         140      4.12%     34.01% |         107      3.15%     37.16% |          87      2.56%     39.72% |          90      2.65%     42.37% |         122      3.59%     45.97% |         109      3.21%     49.18% |         103      3.03%     52.21% |         102      3.00%     55.21% |         100      2.94%     58.16% |          82      2.41%     60.57% |         140      4.12%     64.69% |         127      3.74%     68.43% |         126      3.71%     72.14% |          92      2.71%     74.85% |          89      2.62%     77.47% |         100      2.94%     80.42% |         103      3.03%     83.45% |          90      2.65%     86.10% |         135      3.98%     90.08% |         121      3.56%     93.64% |         113      3.33%     96.97% |         103      3.03%    100.00%
system.ruby.L2Cache_Controller.MT_IB.WB_Data_clean::total         3396                      
system.ruby.L2Cache_Controller.MT_SB.L1_GETS |           0      0.00%      0.00% |           0      0.00%      0.00% |           0      0.00%      0.00% |           0      0.00%      0.00% |           0      0.00%      0.00% |           0      0.00%      0.00% |           0      0.00%      0.00% |           0      0.00%      0.00% |           0      0.00%      0.00% |           0      0.00%      0.00% |           1     33.33%     33.33% |           0      0.00%     33.33% |           1     33.33%     66.67% |           0      0.00%     66.67% |           0      0.00%     66.67% |           0      0.00%     66.67% |           0      0.00%     66.67% |           0      0.00%     66.67% |           0      0.00%     66.67% |           0      0.00%     66.67% |           0      0.00%     66.67% |           0      0.00%     66.67% |           1     33.33%    100.00% |           0      0.00%    100.00% |           0      0.00%    100.00% |           0      0.00%    100.00% |           0      0.00%    100.00% |           0      0.00%    100.00% |           0      0.00%    100.00% |           0      0.00%    100.00% |           0      0.00%    100.00% |           0      0.00%    100.00%
system.ruby.L2Cache_Controller.MT_SB.L1_GETS::total            3                      
system.ruby.L2Cache_Controller.MT_SB.L1_PUTX |           2      3.57%      3.57% |           0      0.00%      3.57% |           1      1.79%      5.36% |           2      3.57%      8.93% |           2      3.57%     12.50% |           2      3.57%     16.07% |           0      0.00%     16.07% |           0      0.00%     16.07% |           0      0.00%     16.07% |           1      1.79%     17.86% |           1      1.79%     19.64% |           4      7.14%     26.79% |           2      3.57%     30.36% |           1      1.79%     32.14% |           0      0.00%     32.14% |           0      0.00%     32.14% |           1      1.79%     33.93% |           4      7.14%     41.07% |           9     16.07%     57.14% |           2      3.57%     60.71% |           3      5.36%     66.07% |           3      5.36%     71.43% |           3      5.36%     76.79% |           1      1.79%     78.57% |           2      3.57%     82.14% |           1      1.79%     83.93% |           2      3.57%     87.50% |           4      7.14%     94.64% |           1      1.79%     96.43% |           0      0.00%     96.43% |           0      0.00%     96.43% |           2      3.57%    100.00%
system.ruby.L2Cache_Controller.MT_SB.L1_PUTX::total           56                      
system.ruby.L2Cache_Controller.MT_SB.Unblock |        1385      3.19%      3.19% |        1421      3.28%      6.47% |        1405      3.24%      9.71% |        1402      3.23%     12.94% |        1388      3.20%     16.14% |        1364      3.15%     19.29% |        1242      2.86%     22.15% |        1154      2.66%     24.81% |        1142      2.63%     27.45% |        1208      2.79%     30.23% |        1326      3.06%     33.29% |        1337      3.08%     36.37% |        1401      3.23%     39.60% |        1349      3.11%     42.72% |        1251      2.88%     45.60% |        1214      2.80%     48.40% |        1243      2.87%     51.27% |        1364      3.15%     54.41% |        1435      3.31%     57.72% |        1420      3.27%     60.99% |        1380      3.18%     64.18% |        1380      3.18%     67.36% |        1405      3.24%     70.60% |        1348      3.11%     73.71% |        1457      3.36%     77.07% |        1482      3.42%     80.48% |        1475      3.40%     83.89% |        1480      3.41%     87.30% |        1425      3.29%     90.58% |        1423      3.28%     93.87% |        1371      3.16%     97.03% |        1289      2.97%    100.00%
system.ruby.L2Cache_Controller.MT_SB.Unblock::total        43366                      
system.ruby.SimicsNetworkPortInterface_Controller.MessageSend |      531204     19.51%     19.51% |     1361074     50.00%     69.51% |      107426      3.95%     73.46% |      111946      4.11%     77.57% |      101672      3.73%     81.31% |      104531      3.84%     85.15% |      100955      3.71%     88.86% |      103652      3.81%     92.66% |       99951      3.67%     96.34% |       99737      3.66%    100.00% |           0      0.00%    100.00% |           0      0.00%    100.00% |           0      0.00%    100.00% |           0      0.00%    100.00% |           0      0.00%    100.00% |           0      0.00%    100.00% |           0      0.00%    100.00% |           0      0.00%    100.00% |           0      0.00%    100.00% |           0      0.00%    100.00% |           0      0.00%    100.00% |           0      0.00%    100.00% |           0      0.00%    100.00% |           0      0.00%    100.00% |           0      0.00%    100.00% |           0      0.00%    100.00% |           0      0.00%    100.00% |           0      0.00%    100.00% |           0      0.00%    100.00% |           0      0.00%    100.00% |           0      0.00%    100.00% |           0      0.00%    100.00%
system.ruby.SimicsNetworkPortInterface_Controller.MessageSend::total      2722148                      
system.ruby.SimicsNetworkPortInterface_Controller.MessageRecv |      531204     19.51%     19.51% |     1361074     50.00%     69.51% |      107426      3.95%     73.46% |      111946      4.11%     77.57% |      101672      3.73%     81.31% |      104531      3.84%     85.15% |      100955      3.71%     88.86% |      103652      3.81%     92.66% |       99951      3.67%     96.34% |       99737      3.66%    100.00% |           0      0.00%    100.00% |           0      0.00%    100.00% |           0      0.00%    100.00% |           0      0.00%    100.00% |           0      0.00%    100.00% |           0      0.00%    100.00% |           0      0.00%    100.00% |           0      0.00%    100.00% |           0      0.00%    100.00% |           0      0.00%    100.00% |           0      0.00%    100.00% |           0      0.00%    100.00% |           0      0.00%    100.00% |           0      0.00%    100.00% |           0      0.00%    100.00% |           0      0.00%    100.00% |           0      0.00%    100.00% |           0      0.00%    100.00% |           0      0.00%    100.00% |           0      0.00%    100.00% |           0      0.00%    100.00% |           0      0.00%    100.00%
system.ruby.SimicsNetworkPortInterface_Controller.MessageRecv::total      2722148                      
system.ruby.SimicsNetworkPortInterface_Controller.A.MessageSend |      531204     19.51%     19.51% |     1361074     50.00%     69.51% |      107426      3.95%     73.46% |      111946      4.11%     77.57% |      101672      3.73%     81.31% |      104531      3.84%     85.15% |      100955      3.71%     88.86% |      103652      3.81%     92.66% |       99951      3.67%     96.34% |       99737      3.66%    100.00% |           0      0.00%    100.00% |           0      0.00%    100.00% |           0      0.00%    100.00% |           0      0.00%    100.00% |           0      0.00%    100.00% |           0      0.00%    100.00% |           0      0.00%    100.00% |           0      0.00%    100.00% |           0      0.00%    100.00% |           0      0.00%    100.00% |           0      0.00%    100.00% |           0      0.00%    100.00% |           0      0.00%    100.00% |           0      0.00%    100.00% |           0      0.00%    100.00% |           0      0.00%    100.00% |           0      0.00%    100.00% |           0      0.00%    100.00% |           0      0.00%    100.00% |           0      0.00%    100.00% |           0      0.00%    100.00% |           0      0.00%    100.00%
system.ruby.SimicsNetworkPortInterface_Controller.A.MessageSend::total      2722148                      
system.ruby.SimicsNetworkPortInterface_Controller.A.MessageRecv |      531204     19.51%     19.51% |     1361074     50.00%     69.51% |      107426      3.95%     73.46% |      111946      4.11%     77.57% |      101672      3.73%     81.31% |      104531      3.84%     85.15% |      100955      3.71%     88.86% |      103652      3.81%     92.66% |       99951      3.67%     96.34% |       99737      3.66%    100.00% |           0      0.00%    100.00% |           0      0.00%    100.00% |           0      0.00%    100.00% |           0      0.00%    100.00% |           0      0.00%    100.00% |           0      0.00%    100.00% |           0      0.00%    100.00% |           0      0.00%    100.00% |           0      0.00%    100.00% |           0      0.00%    100.00% |           0      0.00%    100.00% |           0      0.00%    100.00% |           0      0.00%    100.00% |           0      0.00%    100.00% |           0      0.00%    100.00% |           0      0.00%    100.00% |           0      0.00%    100.00% |           0      0.00%    100.00% |           0      0.00%    100.00% |           0      0.00%    100.00% |           0      0.00%    100.00% |           0      0.00%    100.00%
system.ruby.SimicsNetworkPortInterface_Controller.A.MessageRecv::total      2722148                      
system.switch_cpus.kern.inst.arm                    0                       # number of arm instructions executed
system.switch_cpus.kern.inst.quiesce                0                       # number of quiesce instructions executed

---------- End Simulation Statistics   ----------
