
---------- Begin Simulation Statistics ----------
sim_seconds                                  0.154403                       # Number of seconds simulated
sim_ticks                                154402675000                       # Number of ticks simulated
final_tick                               5330570753500                       # Number of ticks from beginning of simulation (restored from checkpoints and never reset)
sim_freq                                 1000000000000                       # Frequency of simulated ticks
host_inst_rate                                  41644                       # Simulator instruction rate (inst/s)
host_op_rate                                    79119                       # Simulator op (including micro ops) rate (op/s)
host_tick_rate                               98420227                       # Simulator tick rate (ticks/s)
host_mem_usage                                4011492                       # Number of bytes of host memory used
host_seconds                                  1568.81                       # Real time elapsed on the host
sim_insts                                    65331810                       # Number of instructions simulated
sim_ops                                     124121949                       # Number of ops (including micro ops) simulated
system.voltage_domain.voltage                       1                       # Voltage in Volts
system.clk_domain.clock                           500                       # Clock period in ticks
system.mem_ctrls0.bytes_read::ruby.dir_cntrl0     25269056                       # Number of bytes read from this memory
system.mem_ctrls0.bytes_read::total          25269056                       # Number of bytes read from this memory
system.mem_ctrls0.bytes_written::ruby.dir_cntrl0     21422592                       # Number of bytes written to this memory
system.mem_ctrls0.bytes_written::total       21422592                       # Number of bytes written to this memory
system.mem_ctrls0.num_reads::ruby.dir_cntrl0       394829                       # Number of read requests responded to by this memory
system.mem_ctrls0.num_reads::total             394829                       # Number of read requests responded to by this memory
system.mem_ctrls0.num_writes::ruby.dir_cntrl0       334728                       # Number of write requests responded to by this memory
system.mem_ctrls0.num_writes::total            334728                       # Number of write requests responded to by this memory
system.mem_ctrls0.bw_read::ruby.dir_cntrl0    163656854                       # Total read bandwidth from this memory (bytes/s)
system.mem_ctrls0.bw_read::total            163656854                       # Total read bandwidth from this memory (bytes/s)
system.mem_ctrls0.bw_write::ruby.dir_cntrl0    138744954                       # Write bandwidth from this memory (bytes/s)
system.mem_ctrls0.bw_write::total           138744954                       # Write bandwidth from this memory (bytes/s)
system.mem_ctrls0.bw_total::ruby.dir_cntrl0    302401807                       # Total bandwidth to/from this memory (bytes/s)
system.mem_ctrls0.bw_total::total           302401807                       # Total bandwidth to/from this memory (bytes/s)
system.mem_ctrls0.readReqs                     394830                       # Number of read requests accepted
system.mem_ctrls0.writeReqs                    334728                       # Number of write requests accepted
system.mem_ctrls0.readBursts                   394830                       # Number of DRAM read bursts, including those serviced by the write queue
system.mem_ctrls0.writeBursts                  334728                       # Number of DRAM write bursts, including those merged in the write queue
system.mem_ctrls0.bytesReadDRAM              25267264                       # Total number of bytes read from DRAM
system.mem_ctrls0.bytesReadWrQ                   1856                       # Total number of bytes read from write queue
system.mem_ctrls0.bytesWritten               21422464                       # Total number of bytes written to DRAM
system.mem_ctrls0.bytesReadSys               25269120                       # Total read bytes from the system interface side
system.mem_ctrls0.bytesWrittenSys            21422592                       # Total written bytes from the system interface side
system.mem_ctrls0.servicedByWrQ                    29                       # Number of DRAM read bursts serviced by the write queue
system.mem_ctrls0.mergedWrBursts                    0                       # Number of DRAM write bursts merged with an existing one
system.mem_ctrls0.neitherReadNorWriteReqs            0                       # Number of requests that are neither read nor write
system.mem_ctrls0.perBankRdBursts::0            24365                       # Per bank write bursts
system.mem_ctrls0.perBankRdBursts::1            25081                       # Per bank write bursts
system.mem_ctrls0.perBankRdBursts::2            24641                       # Per bank write bursts
system.mem_ctrls0.perBankRdBursts::3            24947                       # Per bank write bursts
system.mem_ctrls0.perBankRdBursts::4            24584                       # Per bank write bursts
system.mem_ctrls0.perBankRdBursts::5            24927                       # Per bank write bursts
system.mem_ctrls0.perBankRdBursts::6            24975                       # Per bank write bursts
system.mem_ctrls0.perBankRdBursts::7            24755                       # Per bank write bursts
system.mem_ctrls0.perBankRdBursts::8            24656                       # Per bank write bursts
system.mem_ctrls0.perBankRdBursts::9            24784                       # Per bank write bursts
system.mem_ctrls0.perBankRdBursts::10           24578                       # Per bank write bursts
system.mem_ctrls0.perBankRdBursts::11           25061                       # Per bank write bursts
system.mem_ctrls0.perBankRdBursts::12           24324                       # Per bank write bursts
system.mem_ctrls0.perBankRdBursts::13           24245                       # Per bank write bursts
system.mem_ctrls0.perBankRdBursts::14           24408                       # Per bank write bursts
system.mem_ctrls0.perBankRdBursts::15           24470                       # Per bank write bursts
system.mem_ctrls0.perBankWrBursts::0            20944                       # Per bank write bursts
system.mem_ctrls0.perBankWrBursts::1            20850                       # Per bank write bursts
system.mem_ctrls0.perBankWrBursts::2            20835                       # Per bank write bursts
system.mem_ctrls0.perBankWrBursts::3            21136                       # Per bank write bursts
system.mem_ctrls0.perBankWrBursts::4            20763                       # Per bank write bursts
system.mem_ctrls0.perBankWrBursts::5            21058                       # Per bank write bursts
system.mem_ctrls0.perBankWrBursts::6            21061                       # Per bank write bursts
system.mem_ctrls0.perBankWrBursts::7            21031                       # Per bank write bursts
system.mem_ctrls0.perBankWrBursts::8            21122                       # Per bank write bursts
system.mem_ctrls0.perBankWrBursts::9            20910                       # Per bank write bursts
system.mem_ctrls0.perBankWrBursts::10           20847                       # Per bank write bursts
system.mem_ctrls0.perBankWrBursts::11           20877                       # Per bank write bursts
system.mem_ctrls0.perBankWrBursts::12           20639                       # Per bank write bursts
system.mem_ctrls0.perBankWrBursts::13           20908                       # Per bank write bursts
system.mem_ctrls0.perBankWrBursts::14           20937                       # Per bank write bursts
system.mem_ctrls0.perBankWrBursts::15           20808                       # Per bank write bursts
system.mem_ctrls0.numRdRetry                     1247                       # Number of times read queue was full causing retry
system.mem_ctrls0.numWrRetry                     6616                       # Number of times write queue was full causing retry
system.mem_ctrls0.totGap                 154402411500                       # Total gap between requests
system.mem_ctrls0.readPktSize::0                    0                       # Read request sizes (log2)
system.mem_ctrls0.readPktSize::1                    0                       # Read request sizes (log2)
system.mem_ctrls0.readPktSize::2                    0                       # Read request sizes (log2)
system.mem_ctrls0.readPktSize::3                    0                       # Read request sizes (log2)
system.mem_ctrls0.readPktSize::4                    0                       # Read request sizes (log2)
system.mem_ctrls0.readPktSize::5                    0                       # Read request sizes (log2)
system.mem_ctrls0.readPktSize::6               394830                       # Read request sizes (log2)
system.mem_ctrls0.writePktSize::0                   0                       # Write request sizes (log2)
system.mem_ctrls0.writePktSize::1                   0                       # Write request sizes (log2)
system.mem_ctrls0.writePktSize::2                   0                       # Write request sizes (log2)
system.mem_ctrls0.writePktSize::3                   0                       # Write request sizes (log2)
system.mem_ctrls0.writePktSize::4                   0                       # Write request sizes (log2)
system.mem_ctrls0.writePktSize::5                   0                       # Write request sizes (log2)
system.mem_ctrls0.writePktSize::6              334728                       # Write request sizes (log2)
system.mem_ctrls0.rdQLenPdf::0                 208714                       # What read queue length does an incoming req see
system.mem_ctrls0.rdQLenPdf::1                  14007                       # What read queue length does an incoming req see
system.mem_ctrls0.rdQLenPdf::2                  13911                       # What read queue length does an incoming req see
system.mem_ctrls0.rdQLenPdf::3                  13839                       # What read queue length does an incoming req see
system.mem_ctrls0.rdQLenPdf::4                  15181                       # What read queue length does an incoming req see
system.mem_ctrls0.rdQLenPdf::5                  15421                       # What read queue length does an incoming req see
system.mem_ctrls0.rdQLenPdf::6                  14327                       # What read queue length does an incoming req see
system.mem_ctrls0.rdQLenPdf::7                  12809                       # What read queue length does an incoming req see
system.mem_ctrls0.rdQLenPdf::8                  11020                       # What read queue length does an incoming req see
system.mem_ctrls0.rdQLenPdf::9                   9650                       # What read queue length does an incoming req see
system.mem_ctrls0.rdQLenPdf::10                  8630                       # What read queue length does an incoming req see
system.mem_ctrls0.rdQLenPdf::11                  7548                       # What read queue length does an incoming req see
system.mem_ctrls0.rdQLenPdf::12                  6645                       # What read queue length does an incoming req see
system.mem_ctrls0.rdQLenPdf::13                  5951                       # What read queue length does an incoming req see
system.mem_ctrls0.rdQLenPdf::14                  5235                       # What read queue length does an incoming req see
system.mem_ctrls0.rdQLenPdf::15                  4689                       # What read queue length does an incoming req see
system.mem_ctrls0.rdQLenPdf::16                  3952                       # What read queue length does an incoming req see
system.mem_ctrls0.rdQLenPdf::17                  3537                       # What read queue length does an incoming req see
system.mem_ctrls0.rdQLenPdf::18                  3025                       # What read queue length does an incoming req see
system.mem_ctrls0.rdQLenPdf::19                  2604                       # What read queue length does an incoming req see
system.mem_ctrls0.rdQLenPdf::20                  2238                       # What read queue length does an incoming req see
system.mem_ctrls0.rdQLenPdf::21                  1959                       # What read queue length does an incoming req see
system.mem_ctrls0.rdQLenPdf::22                  1685                       # What read queue length does an incoming req see
system.mem_ctrls0.rdQLenPdf::23                  1372                       # What read queue length does an incoming req see
system.mem_ctrls0.rdQLenPdf::24                  1204                       # What read queue length does an incoming req see
system.mem_ctrls0.rdQLenPdf::25                   996                       # What read queue length does an incoming req see
system.mem_ctrls0.rdQLenPdf::26                   875                       # What read queue length does an incoming req see
system.mem_ctrls0.rdQLenPdf::27                   670                       # What read queue length does an incoming req see
system.mem_ctrls0.rdQLenPdf::28                   568                       # What read queue length does an incoming req see
system.mem_ctrls0.rdQLenPdf::29                   506                       # What read queue length does an incoming req see
system.mem_ctrls0.rdQLenPdf::30                   424                       # What read queue length does an incoming req see
system.mem_ctrls0.rdQLenPdf::31                  1609                       # What read queue length does an incoming req see
system.mem_ctrls0.wrQLenPdf::0                  52796                       # What write queue length does an incoming req see
system.mem_ctrls0.wrQLenPdf::1                  59503                       # What write queue length does an incoming req see
system.mem_ctrls0.wrQLenPdf::2                  62245                       # What write queue length does an incoming req see
system.mem_ctrls0.wrQLenPdf::3                  62124                       # What write queue length does an incoming req see
system.mem_ctrls0.wrQLenPdf::4                  61117                       # What write queue length does an incoming req see
system.mem_ctrls0.wrQLenPdf::5                  13183                       # What write queue length does an incoming req see
system.mem_ctrls0.wrQLenPdf::6                  11173                       # What write queue length does an incoming req see
system.mem_ctrls0.wrQLenPdf::7                  12587                       # What write queue length does an incoming req see
system.mem_ctrls0.bytesPerActivate::samples       215022                       # Bytes accessed per row activation
system.mem_ctrls0.bytesPerActivate::mean   217.138711                       # Bytes accessed per row activation
system.mem_ctrls0.bytesPerActivate::gmean   163.664233                       # Bytes accessed per row activation
system.mem_ctrls0.bytesPerActivate::stdev   177.974160                       # Bytes accessed per row activation
system.mem_ctrls0.bytesPerActivate::0-127        66380     30.87%     30.87% # Bytes accessed per row activation
system.mem_ctrls0.bytesPerActivate::128-255        60563     28.17%     59.04% # Bytes accessed per row activation
system.mem_ctrls0.bytesPerActivate::256-383        67459     31.37%     90.41% # Bytes accessed per row activation
system.mem_ctrls0.bytesPerActivate::384-511         7687      3.57%     93.99% # Bytes accessed per row activation
system.mem_ctrls0.bytesPerActivate::512-639         4432      2.06%     96.05% # Bytes accessed per row activation
system.mem_ctrls0.bytesPerActivate::640-767         2604      1.21%     97.26% # Bytes accessed per row activation
system.mem_ctrls0.bytesPerActivate::768-895         1589      0.74%     98.00% # Bytes accessed per row activation
system.mem_ctrls0.bytesPerActivate::896-1023         1349      0.63%     98.62% # Bytes accessed per row activation
system.mem_ctrls0.bytesPerActivate::1024-1151         2959      1.38%    100.00% # Bytes accessed per row activation
system.mem_ctrls0.bytesPerActivate::total       215022                       # Bytes accessed per row activation
system.mem_ctrls0.rdPerTurnAround::samples        54335                       # Reads before turning the bus around for writes
system.mem_ctrls0.rdPerTurnAround::mean      7.265888                       # Reads before turning the bus around for writes
system.mem_ctrls0.rdPerTurnAround::stdev    18.000944                       # Reads before turning the bus around for writes
system.mem_ctrls0.rdPerTurnAround::0-127        54327     99.99%     99.99% # Reads before turning the bus around for writes
system.mem_ctrls0.rdPerTurnAround::128-255            7      0.01%    100.00% # Reads before turning the bus around for writes
system.mem_ctrls0.rdPerTurnAround::3968-4095            1      0.00%    100.00% # Reads before turning the bus around for writes
system.mem_ctrls0.rdPerTurnAround::total        54335                       # Reads before turning the bus around for writes
system.mem_ctrls0.wrPerTurnAround::samples        54335                       # Writes before turning the bus around for reads
system.mem_ctrls0.wrPerTurnAround::mean      6.160412                       # Writes before turning the bus around for reads
system.mem_ctrls0.wrPerTurnAround::gmean     5.801714                       # Writes before turning the bus around for reads
system.mem_ctrls0.wrPerTurnAround::stdev     2.652372                       # Writes before turning the bus around for reads
system.mem_ctrls0.wrPerTurnAround::4-7          45542     83.82%     83.82% # Writes before turning the bus around for reads
system.mem_ctrls0.wrPerTurnAround::8-11          5095      9.38%     93.19% # Writes before turning the bus around for reads
system.mem_ctrls0.wrPerTurnAround::12-15         1901      3.50%     96.69% # Writes before turning the bus around for reads
system.mem_ctrls0.wrPerTurnAround::16-19         1797      3.31%    100.00% # Writes before turning the bus around for reads
system.mem_ctrls0.wrPerTurnAround::total        54335                       # Writes before turning the bus around for reads
system.mem_ctrls0.totQLat                 26233929383                       # Total ticks spent queuing
system.mem_ctrls0.totMemAccLat            33636448133                       # Total ticks spent from burst creation until serviced by the DRAM
system.mem_ctrls0.totBusLat                1974005000                       # Total ticks spent in databus transfers
system.mem_ctrls0.avgQLat                    66448.49                       # Average queueing delay per DRAM burst
system.mem_ctrls0.avgBusLat                   5000.00                       # Average bus latency per DRAM burst
system.mem_ctrls0.avgMemAccLat               85198.49                       # Average memory access latency per DRAM burst
system.mem_ctrls0.avgRdBW                      163.65                       # Average DRAM read bandwidth in MiByte/s
system.mem_ctrls0.avgWrBW                      138.74                       # Average achieved write bandwidth in MiByte/s
system.mem_ctrls0.avgRdBWSys                   163.66                       # Average system read bandwidth in MiByte/s
system.mem_ctrls0.avgWrBWSys                   138.74                       # Average system write bandwidth in MiByte/s
system.mem_ctrls0.peakBW                     12800.00                       # Theoretical peak bandwidth in MiByte/s
system.mem_ctrls0.busUtil                        2.36                       # Data bus utilization in percentage
system.mem_ctrls0.busUtilRead                    1.28                       # Data bus utilization in percentage for reads
system.mem_ctrls0.busUtilWrite                   1.08                       # Data bus utilization in percentage for writes
system.mem_ctrls0.avgRdQLen                      1.19                       # Average read queue length when enqueuing
system.mem_ctrls0.avgWrQLen                      2.97                       # Average write queue length when enqueuing
system.mem_ctrls0.readRowHits                  291337                       # Number of row buffer hits during reads
system.mem_ctrls0.writeRowHits                 223166                       # Number of row buffer hits during writes
system.mem_ctrls0.readRowHitRate                73.79                       # Row buffer hit rate for reads
system.mem_ctrls0.writeRowHitRate               66.67                       # Row buffer hit rate for writes
system.mem_ctrls0.avgGap                    211638.30                       # Average gap between requests
system.mem_ctrls0.pageHitRate                   70.53                       # Row buffer hit rate, read and write combined
system.mem_ctrls0.memoryStateTime::IDLE   26566254500                       # Time in different power states
system.mem_ctrls0.memoryStateTime::REF     5155800000                       # Time in different power states
system.mem_ctrls0.memoryStateTime::PRE_PDN            0                       # Time in different power states
system.mem_ctrls0.memoryStateTime::ACT   122679985500                       # Time in different power states
system.mem_ctrls0.memoryStateTime::ACT_PDN            0                       # Time in different power states
system.mem_ctrls0.actEnergy::0              818672400                       # Energy for activate commands per rank (pJ)
system.mem_ctrls0.actEnergy::1              806886360                       # Energy for activate commands per rank (pJ)
system.mem_ctrls0.preEnergy::0              446696250                       # Energy for precharge commands per rank (pJ)
system.mem_ctrls0.preEnergy::1              440265375                       # Energy for precharge commands per rank (pJ)
system.mem_ctrls0.readEnergy::0            1546537200                       # Energy for read commands per rank (pJ)
system.mem_ctrls0.readEnergy::1            1532871600                       # Energy for read commands per rank (pJ)
system.mem_ctrls0.writeEnergy::0           1086553440                       # Energy for write commands per rank (pJ)
system.mem_ctrls0.writeEnergy::1           1082471040                       # Energy for write commands per rank (pJ)
system.mem_ctrls0.refreshEnergy::0        10084744800                       # Energy for refresh commands per rank (pJ)
system.mem_ctrls0.refreshEnergy::1        10084744800                       # Energy for refresh commands per rank (pJ)
system.mem_ctrls0.actBackEnergy::0        61515858060                       # Energy for active background per rank (pJ)
system.mem_ctrls0.actBackEnergy::1        61258735620                       # Energy for active background per rank (pJ)
system.mem_ctrls0.preBackEnergy::0        38679679500                       # Energy for precharge background per rank (pJ)
system.mem_ctrls0.preBackEnergy::1        38905225500                       # Energy for precharge background per rank (pJ)
system.mem_ctrls0.totalEnergy::0         114178741650                       # Total energy per rank (pJ)
system.mem_ctrls0.totalEnergy::1         114111200295                       # Total energy per rank (pJ)
system.mem_ctrls0.averagePower::0          739.491971                       # Core power per rank (mW)
system.mem_ctrls0.averagePower::1          739.054531                       # Core power per rank (mW)
system.mem_ctrls1.bytes_read::ruby.dir_cntrl1     24511296                       # Number of bytes read from this memory
system.mem_ctrls1.bytes_read::total          24511296                       # Number of bytes read from this memory
system.mem_ctrls1.bytes_written::ruby.dir_cntrl1     20685632                       # Number of bytes written to this memory
system.mem_ctrls1.bytes_written::total       20685632                       # Number of bytes written to this memory
system.mem_ctrls1.num_reads::ruby.dir_cntrl1       382989                       # Number of read requests responded to by this memory
system.mem_ctrls1.num_reads::total             382989                       # Number of read requests responded to by this memory
system.mem_ctrls1.num_writes::ruby.dir_cntrl1       323213                       # Number of write requests responded to by this memory
system.mem_ctrls1.num_writes::total            323213                       # Number of write requests responded to by this memory
system.mem_ctrls1.bw_read::ruby.dir_cntrl1    158749167                       # Total read bandwidth from this memory (bytes/s)
system.mem_ctrls1.bw_read::total            158749167                       # Total read bandwidth from this memory (bytes/s)
system.mem_ctrls1.bw_write::ruby.dir_cntrl1    133971979                       # Write bandwidth from this memory (bytes/s)
system.mem_ctrls1.bw_write::total           133971979                       # Write bandwidth from this memory (bytes/s)
system.mem_ctrls1.bw_total::ruby.dir_cntrl1    292721146                       # Total bandwidth to/from this memory (bytes/s)
system.mem_ctrls1.bw_total::total           292721146                       # Total bandwidth to/from this memory (bytes/s)
system.mem_ctrls1.readReqs                     382989                       # Number of read requests accepted
system.mem_ctrls1.writeReqs                    323213                       # Number of write requests accepted
system.mem_ctrls1.readBursts                   382989                       # Number of DRAM read bursts, including those serviced by the write queue
system.mem_ctrls1.writeBursts                  323213                       # Number of DRAM write bursts, including those merged in the write queue
system.mem_ctrls1.bytesReadDRAM              24509440                       # Total number of bytes read from DRAM
system.mem_ctrls1.bytesReadWrQ                   1856                       # Total number of bytes read from write queue
system.mem_ctrls1.bytesWritten               20685568                       # Total number of bytes written to DRAM
system.mem_ctrls1.bytesReadSys               24511296                       # Total read bytes from the system interface side
system.mem_ctrls1.bytesWrittenSys            20685632                       # Total written bytes from the system interface side
system.mem_ctrls1.servicedByWrQ                    29                       # Number of DRAM read bursts serviced by the write queue
system.mem_ctrls1.mergedWrBursts                    0                       # Number of DRAM write bursts merged with an existing one
system.mem_ctrls1.neitherReadNorWriteReqs            0                       # Number of requests that are neither read nor write
system.mem_ctrls1.perBankRdBursts::0            23653                       # Per bank write bursts
system.mem_ctrls1.perBankRdBursts::1            24332                       # Per bank write bursts
system.mem_ctrls1.perBankRdBursts::2            23898                       # Per bank write bursts
system.mem_ctrls1.perBankRdBursts::3            24204                       # Per bank write bursts
system.mem_ctrls1.perBankRdBursts::4            23873                       # Per bank write bursts
system.mem_ctrls1.perBankRdBursts::5            24188                       # Per bank write bursts
system.mem_ctrls1.perBankRdBursts::6            24231                       # Per bank write bursts
system.mem_ctrls1.perBankRdBursts::7            24045                       # Per bank write bursts
system.mem_ctrls1.perBankRdBursts::8            23920                       # Per bank write bursts
system.mem_ctrls1.perBankRdBursts::9            24039                       # Per bank write bursts
system.mem_ctrls1.perBankRdBursts::10           23809                       # Per bank write bursts
system.mem_ctrls1.perBankRdBursts::11           24333                       # Per bank write bursts
system.mem_ctrls1.perBankRdBursts::12           23594                       # Per bank write bursts
system.mem_ctrls1.perBankRdBursts::13           23492                       # Per bank write bursts
system.mem_ctrls1.perBankRdBursts::14           23598                       # Per bank write bursts
system.mem_ctrls1.perBankRdBursts::15           23751                       # Per bank write bursts
system.mem_ctrls1.perBankWrBursts::0            20225                       # Per bank write bursts
system.mem_ctrls1.perBankWrBursts::1            20146                       # Per bank write bursts
system.mem_ctrls1.perBankWrBursts::2            20129                       # Per bank write bursts
system.mem_ctrls1.perBankWrBursts::3            20426                       # Per bank write bursts
system.mem_ctrls1.perBankWrBursts::4            20054                       # Per bank write bursts
system.mem_ctrls1.perBankWrBursts::5            20349                       # Per bank write bursts
system.mem_ctrls1.perBankWrBursts::6            20329                       # Per bank write bursts
system.mem_ctrls1.perBankWrBursts::7            20300                       # Per bank write bursts
system.mem_ctrls1.perBankWrBursts::8            20398                       # Per bank write bursts
system.mem_ctrls1.perBankWrBursts::9            20185                       # Per bank write bursts
system.mem_ctrls1.perBankWrBursts::10           20134                       # Per bank write bursts
system.mem_ctrls1.perBankWrBursts::11           20163                       # Per bank write bursts
system.mem_ctrls1.perBankWrBursts::12           19923                       # Per bank write bursts
system.mem_ctrls1.perBankWrBursts::13           20188                       # Per bank write bursts
system.mem_ctrls1.perBankWrBursts::14           20166                       # Per bank write bursts
system.mem_ctrls1.perBankWrBursts::15           20097                       # Per bank write bursts
system.mem_ctrls1.numRdRetry                      378                       # Number of times read queue was full causing retry
system.mem_ctrls1.numWrRetry                     6527                       # Number of times write queue was full causing retry
system.mem_ctrls1.totGap                 154401920500                       # Total gap between requests
system.mem_ctrls1.readPktSize::0                    0                       # Read request sizes (log2)
system.mem_ctrls1.readPktSize::1                    0                       # Read request sizes (log2)
system.mem_ctrls1.readPktSize::2                    0                       # Read request sizes (log2)
system.mem_ctrls1.readPktSize::3                    0                       # Read request sizes (log2)
system.mem_ctrls1.readPktSize::4                    0                       # Read request sizes (log2)
system.mem_ctrls1.readPktSize::5                    0                       # Read request sizes (log2)
system.mem_ctrls1.readPktSize::6               382989                       # Read request sizes (log2)
system.mem_ctrls1.writePktSize::0                   0                       # Write request sizes (log2)
system.mem_ctrls1.writePktSize::1                   0                       # Write request sizes (log2)
system.mem_ctrls1.writePktSize::2                   0                       # Write request sizes (log2)
system.mem_ctrls1.writePktSize::3                   0                       # Write request sizes (log2)
system.mem_ctrls1.writePktSize::4                   0                       # Write request sizes (log2)
system.mem_ctrls1.writePktSize::5                   0                       # Write request sizes (log2)
system.mem_ctrls1.writePktSize::6              323213                       # Write request sizes (log2)
system.mem_ctrls1.rdQLenPdf::0                 204626                       # What read queue length does an incoming req see
system.mem_ctrls1.rdQLenPdf::1                  10475                       # What read queue length does an incoming req see
system.mem_ctrls1.rdQLenPdf::2                  12604                       # What read queue length does an incoming req see
system.mem_ctrls1.rdQLenPdf::3                  14989                       # What read queue length does an incoming req see
system.mem_ctrls1.rdQLenPdf::4                  16418                       # What read queue length does an incoming req see
system.mem_ctrls1.rdQLenPdf::5                  16207                       # What read queue length does an incoming req see
system.mem_ctrls1.rdQLenPdf::6                  14815                       # What read queue length does an incoming req see
system.mem_ctrls1.rdQLenPdf::7                  13070                       # What read queue length does an incoming req see
system.mem_ctrls1.rdQLenPdf::8                  11282                       # What read queue length does an incoming req see
system.mem_ctrls1.rdQLenPdf::9                   9628                       # What read queue length does an incoming req see
system.mem_ctrls1.rdQLenPdf::10                  8317                       # What read queue length does an incoming req see
system.mem_ctrls1.rdQLenPdf::11                  7148                       # What read queue length does an incoming req see
system.mem_ctrls1.rdQLenPdf::12                  6290                       # What read queue length does an incoming req see
system.mem_ctrls1.rdQLenPdf::13                  5509                       # What read queue length does an incoming req see
system.mem_ctrls1.rdQLenPdf::14                  4807                       # What read queue length does an incoming req see
system.mem_ctrls1.rdQLenPdf::15                  4292                       # What read queue length does an incoming req see
system.mem_ctrls1.rdQLenPdf::16                  3625                       # What read queue length does an incoming req see
system.mem_ctrls1.rdQLenPdf::17                  3114                       # What read queue length does an incoming req see
system.mem_ctrls1.rdQLenPdf::18                  2695                       # What read queue length does an incoming req see
system.mem_ctrls1.rdQLenPdf::19                  2259                       # What read queue length does an incoming req see
system.mem_ctrls1.rdQLenPdf::20                  1883                       # What read queue length does an incoming req see
system.mem_ctrls1.rdQLenPdf::21                  1646                       # What read queue length does an incoming req see
system.mem_ctrls1.rdQLenPdf::22                  1399                       # What read queue length does an incoming req see
system.mem_ctrls1.rdQLenPdf::23                  1160                       # What read queue length does an incoming req see
system.mem_ctrls1.rdQLenPdf::24                   980                       # What read queue length does an incoming req see
system.mem_ctrls1.rdQLenPdf::25                   814                       # What read queue length does an incoming req see
system.mem_ctrls1.rdQLenPdf::26                   692                       # What read queue length does an incoming req see
system.mem_ctrls1.rdQLenPdf::27                   553                       # What read queue length does an incoming req see
system.mem_ctrls1.rdQLenPdf::28                   444                       # What read queue length does an incoming req see
system.mem_ctrls1.rdQLenPdf::29                   354                       # What read queue length does an incoming req see
system.mem_ctrls1.rdQLenPdf::30                   274                       # What read queue length does an incoming req see
system.mem_ctrls1.rdQLenPdf::31                   591                       # What read queue length does an incoming req see
system.mem_ctrls1.wrQLenPdf::0                  51164                       # What write queue length does an incoming req see
system.mem_ctrls1.wrQLenPdf::1                  57587                       # What write queue length does an incoming req see
system.mem_ctrls1.wrQLenPdf::2                  59660                       # What write queue length does an incoming req see
system.mem_ctrls1.wrQLenPdf::3                  59947                       # What write queue length does an incoming req see
system.mem_ctrls1.wrQLenPdf::4                  59016                       # What write queue length does an incoming req see
system.mem_ctrls1.wrQLenPdf::5                  12962                       # What write queue length does an incoming req see
system.mem_ctrls1.wrQLenPdf::6                  10760                       # What write queue length does an incoming req see
system.mem_ctrls1.wrQLenPdf::7                  12117                       # What write queue length does an incoming req see
system.mem_ctrls1.bytesPerActivate::samples       188200                       # Bytes accessed per row activation
system.mem_ctrls1.bytesPerActivate::mean   240.141467                       # Bytes accessed per row activation
system.mem_ctrls1.bytesPerActivate::gmean   186.587447                       # Bytes accessed per row activation
system.mem_ctrls1.bytesPerActivate::stdev   184.172508                       # Bytes accessed per row activation
system.mem_ctrls1.bytesPerActivate::0-127        40825     21.69%     21.69% # Bytes accessed per row activation
system.mem_ctrls1.bytesPerActivate::128-255        59156     31.43%     53.12% # Bytes accessed per row activation
system.mem_ctrls1.bytesPerActivate::256-383        67291     35.76%     88.88% # Bytes accessed per row activation
system.mem_ctrls1.bytesPerActivate::384-511         7317      3.89%     92.77% # Bytes accessed per row activation
system.mem_ctrls1.bytesPerActivate::512-639         4609      2.45%     95.22% # Bytes accessed per row activation
system.mem_ctrls1.bytesPerActivate::640-767         2466      1.31%     96.53% # Bytes accessed per row activation
system.mem_ctrls1.bytesPerActivate::768-895         1799      0.96%     97.48% # Bytes accessed per row activation
system.mem_ctrls1.bytesPerActivate::896-1023         1226      0.65%     98.13% # Bytes accessed per row activation
system.mem_ctrls1.bytesPerActivate::1024-1151         3511      1.87%    100.00% # Bytes accessed per row activation
system.mem_ctrls1.bytesPerActivate::total       188200                       # Bytes accessed per row activation
system.mem_ctrls1.rdPerTurnAround::samples        52603                       # Reads before turning the bus around for writes
system.mem_ctrls1.rdPerTurnAround::mean      7.280060                       # Reads before turning the bus around for writes
system.mem_ctrls1.rdPerTurnAround::stdev    14.683558                       # Reads before turning the bus around for writes
system.mem_ctrls1.rdPerTurnAround::0-127        52597     99.99%     99.99% # Reads before turning the bus around for writes
system.mem_ctrls1.rdPerTurnAround::128-255            4      0.01%    100.00% # Reads before turning the bus around for writes
system.mem_ctrls1.rdPerTurnAround::1152-1279            1      0.00%    100.00% # Reads before turning the bus around for writes
system.mem_ctrls1.rdPerTurnAround::2816-2943            1      0.00%    100.00% # Reads before turning the bus around for writes
system.mem_ctrls1.rdPerTurnAround::total        52603                       # Reads before turning the bus around for writes
system.mem_ctrls1.wrPerTurnAround::samples        52603                       # Writes before turning the bus around for reads
system.mem_ctrls1.wrPerTurnAround::mean      6.144364                       # Writes before turning the bus around for reads
system.mem_ctrls1.wrPerTurnAround::gmean     5.789291                       # Writes before turning the bus around for reads
system.mem_ctrls1.wrPerTurnAround::stdev     2.632994                       # Writes before turning the bus around for reads
system.mem_ctrls1.wrPerTurnAround::4-7          44022     83.69%     83.69% # Writes before turning the bus around for reads
system.mem_ctrls1.wrPerTurnAround::8-11          5030      9.56%     93.25% # Writes before turning the bus around for reads
system.mem_ctrls1.wrPerTurnAround::12-15         1898      3.61%     96.86% # Writes before turning the bus around for reads
system.mem_ctrls1.wrPerTurnAround::16-19         1653      3.14%    100.00% # Writes before turning the bus around for reads
system.mem_ctrls1.wrPerTurnAround::total        52603                       # Writes before turning the bus around for reads
system.mem_ctrls1.totQLat                 23752316831                       # Total ticks spent queuing
system.mem_ctrls1.totMemAccLat            30932816831                       # Total ticks spent from burst creation until serviced by the DRAM
system.mem_ctrls1.totBusLat                1914800000                       # Total ticks spent in databus transfers
system.mem_ctrls1.avgQLat                    62022.97                       # Average queueing delay per DRAM burst
system.mem_ctrls1.avgBusLat                   5000.00                       # Average bus latency per DRAM burst
system.mem_ctrls1.avgMemAccLat               80772.97                       # Average memory access latency per DRAM burst
system.mem_ctrls1.avgRdBW                      158.74                       # Average DRAM read bandwidth in MiByte/s
system.mem_ctrls1.avgWrBW                      133.97                       # Average achieved write bandwidth in MiByte/s
system.mem_ctrls1.avgRdBWSys                   158.75                       # Average system read bandwidth in MiByte/s
system.mem_ctrls1.avgWrBWSys                   133.97                       # Average system write bandwidth in MiByte/s
system.mem_ctrls1.peakBW                     12800.00                       # Theoretical peak bandwidth in MiByte/s
system.mem_ctrls1.busUtil                        2.29                       # Data bus utilization in percentage
system.mem_ctrls1.busUtilRead                    1.24                       # Data bus utilization in percentage for reads
system.mem_ctrls1.busUtilWrite                   1.05                       # Data bus utilization in percentage for writes
system.mem_ctrls1.avgRdQLen                      1.17                       # Average read queue length when enqueuing
system.mem_ctrls1.avgWrQLen                      2.98                       # Average write queue length when enqueuing
system.mem_ctrls1.readRowHits                  288462                       # Number of row buffer hits during reads
system.mem_ctrls1.writeRowHits                 229508                       # Number of row buffer hits during writes
system.mem_ctrls1.readRowHitRate                75.32                       # Row buffer hit rate for reads
system.mem_ctrls1.writeRowHitRate               71.01                       # Row buffer hit rate for writes
system.mem_ctrls1.avgGap                    218637.05                       # Average gap between requests
system.mem_ctrls1.pageHitRate                   73.35                       # Row buffer hit rate, read and write combined
system.mem_ctrls1.memoryStateTime::IDLE   27041890500                       # Time in different power states
system.mem_ctrls1.memoryStateTime::REF     5155800000                       # Time in different power states
system.mem_ctrls1.memoryStateTime::PRE_PDN            0                       # Time in different power states
system.mem_ctrls1.memoryStateTime::ACT   122203920750                       # Time in different power states
system.mem_ctrls1.memoryStateTime::ACT_PDN            0                       # Time in different power states
system.mem_ctrls1.actEnergy::0              717912720                       # Energy for activate commands per rank (pJ)
system.mem_ctrls1.actEnergy::1              704879280                       # Energy for activate commands per rank (pJ)
system.mem_ctrls1.preEnergy::0              391718250                       # Energy for precharge commands per rank (pJ)
system.mem_ctrls1.preEnergy::1              384606750                       # Energy for precharge commands per rank (pJ)
system.mem_ctrls1.readEnergy::0            1500899400                       # Energy for read commands per rank (pJ)
system.mem_ctrls1.readEnergy::1            1486141800                       # Energy for read commands per rank (pJ)
system.mem_ctrls1.writeEnergy::0           1049487840                       # Energy for write commands per rank (pJ)
system.mem_ctrls1.writeEnergy::1           1044925920                       # Energy for write commands per rank (pJ)
system.mem_ctrls1.refreshEnergy::0        10084744800                       # Energy for refresh commands per rank (pJ)
system.mem_ctrls1.refreshEnergy::1        10084744800                       # Energy for refresh commands per rank (pJ)
system.mem_ctrls1.actBackEnergy::0        60483358350                       # Energy for active background per rank (pJ)
system.mem_ctrls1.actBackEnergy::1        60003044145                       # Energy for active background per rank (pJ)
system.mem_ctrls1.preBackEnergy::0        39585381000                       # Energy for precharge background per rank (pJ)
system.mem_ctrls1.preBackEnergy::1        40006709250                       # Energy for precharge background per rank (pJ)
system.mem_ctrls1.totalEnergy::0         113813502360                       # Total energy per rank (pJ)
system.mem_ctrls1.totalEnergy::1         113715051945                       # Total energy per rank (pJ)
system.mem_ctrls1.averagePower::0          737.126456                       # Core power per rank (mW)
system.mem_ctrls1.averagePower::1          736.488830                       # Core power per rank (mW)
system.mem_ctrls2.bytes_read::ruby.dir_cntrl2     24511360                       # Number of bytes read from this memory
system.mem_ctrls2.bytes_read::total          24511360                       # Number of bytes read from this memory
system.mem_ctrls2.bytes_written::ruby.dir_cntrl2     20687104                       # Number of bytes written to this memory
system.mem_ctrls2.bytes_written::total       20687104                       # Number of bytes written to this memory
system.mem_ctrls2.num_reads::ruby.dir_cntrl2       382990                       # Number of read requests responded to by this memory
system.mem_ctrls2.num_reads::total             382990                       # Number of read requests responded to by this memory
system.mem_ctrls2.num_writes::ruby.dir_cntrl2       323236                       # Number of write requests responded to by this memory
system.mem_ctrls2.num_writes::total            323236                       # Number of write requests responded to by this memory
system.mem_ctrls2.bw_read::ruby.dir_cntrl2    158749581                       # Total read bandwidth from this memory (bytes/s)
system.mem_ctrls2.bw_read::total            158749581                       # Total read bandwidth from this memory (bytes/s)
system.mem_ctrls2.bw_write::ruby.dir_cntrl2    133981513                       # Write bandwidth from this memory (bytes/s)
system.mem_ctrls2.bw_write::total           133981513                       # Write bandwidth from this memory (bytes/s)
system.mem_ctrls2.bw_total::ruby.dir_cntrl2    292731094                       # Total bandwidth to/from this memory (bytes/s)
system.mem_ctrls2.bw_total::total           292731094                       # Total bandwidth to/from this memory (bytes/s)
system.mem_ctrls2.readReqs                     382990                       # Number of read requests accepted
system.mem_ctrls2.writeReqs                    323236                       # Number of write requests accepted
system.mem_ctrls2.readBursts                   382990                       # Number of DRAM read bursts, including those serviced by the write queue
system.mem_ctrls2.writeBursts                  323236                       # Number of DRAM write bursts, including those merged in the write queue
system.mem_ctrls2.bytesReadDRAM              24510208                       # Total number of bytes read from DRAM
system.mem_ctrls2.bytesReadWrQ                   1152                       # Total number of bytes read from write queue
system.mem_ctrls2.bytesWritten               20687104                       # Total number of bytes written to DRAM
system.mem_ctrls2.bytesReadSys               24511360                       # Total read bytes from the system interface side
system.mem_ctrls2.bytesWrittenSys            20687104                       # Total written bytes from the system interface side
system.mem_ctrls2.servicedByWrQ                    18                       # Number of DRAM read bursts serviced by the write queue
system.mem_ctrls2.mergedWrBursts                    0                       # Number of DRAM write bursts merged with an existing one
system.mem_ctrls2.neitherReadNorWriteReqs            0                       # Number of requests that are neither read nor write
system.mem_ctrls2.perBankRdBursts::0            23641                       # Per bank write bursts
system.mem_ctrls2.perBankRdBursts::1            24306                       # Per bank write bursts
system.mem_ctrls2.perBankRdBursts::2            23941                       # Per bank write bursts
system.mem_ctrls2.perBankRdBursts::3            24276                       # Per bank write bursts
system.mem_ctrls2.perBankRdBursts::4            23872                       # Per bank write bursts
system.mem_ctrls2.perBankRdBursts::5            24158                       # Per bank write bursts
system.mem_ctrls2.perBankRdBursts::6            24231                       # Per bank write bursts
system.mem_ctrls2.perBankRdBursts::7            24031                       # Per bank write bursts
system.mem_ctrls2.perBankRdBursts::8            23901                       # Per bank write bursts
system.mem_ctrls2.perBankRdBursts::9            24047                       # Per bank write bursts
system.mem_ctrls2.perBankRdBursts::10           23816                       # Per bank write bursts
system.mem_ctrls2.perBankRdBursts::11           24323                       # Per bank write bursts
system.mem_ctrls2.perBankRdBursts::12           23625                       # Per bank write bursts
system.mem_ctrls2.perBankRdBursts::13           23436                       # Per bank write bursts
system.mem_ctrls2.perBankRdBursts::14           23589                       # Per bank write bursts
system.mem_ctrls2.perBankRdBursts::15           23779                       # Per bank write bursts
system.mem_ctrls2.perBankWrBursts::0            20219                       # Per bank write bursts
system.mem_ctrls2.perBankWrBursts::1            20143                       # Per bank write bursts
system.mem_ctrls2.perBankWrBursts::2            20133                       # Per bank write bursts
system.mem_ctrls2.perBankWrBursts::3            20432                       # Per bank write bursts
system.mem_ctrls2.perBankWrBursts::4            20056                       # Per bank write bursts
system.mem_ctrls2.perBankWrBursts::5            20334                       # Per bank write bursts
system.mem_ctrls2.perBankWrBursts::6            20335                       # Per bank write bursts
system.mem_ctrls2.perBankWrBursts::7            20308                       # Per bank write bursts
system.mem_ctrls2.perBankWrBursts::8            20399                       # Per bank write bursts
system.mem_ctrls2.perBankWrBursts::9            20192                       # Per bank write bursts
system.mem_ctrls2.perBankWrBursts::10           20126                       # Per bank write bursts
system.mem_ctrls2.perBankWrBursts::11           20159                       # Per bank write bursts
system.mem_ctrls2.perBankWrBursts::12           19930                       # Per bank write bursts
system.mem_ctrls2.perBankWrBursts::13           20183                       # Per bank write bursts
system.mem_ctrls2.perBankWrBursts::14           20174                       # Per bank write bursts
system.mem_ctrls2.perBankWrBursts::15           20113                       # Per bank write bursts
system.mem_ctrls2.numRdRetry                      296                       # Number of times read queue was full causing retry
system.mem_ctrls2.numWrRetry                     6226                       # Number of times write queue was full causing retry
system.mem_ctrls2.totGap                 154401831000                       # Total gap between requests
system.mem_ctrls2.readPktSize::0                    0                       # Read request sizes (log2)
system.mem_ctrls2.readPktSize::1                    0                       # Read request sizes (log2)
system.mem_ctrls2.readPktSize::2                    0                       # Read request sizes (log2)
system.mem_ctrls2.readPktSize::3                    0                       # Read request sizes (log2)
system.mem_ctrls2.readPktSize::4                    0                       # Read request sizes (log2)
system.mem_ctrls2.readPktSize::5                    0                       # Read request sizes (log2)
system.mem_ctrls2.readPktSize::6               382990                       # Read request sizes (log2)
system.mem_ctrls2.writePktSize::0                   0                       # Write request sizes (log2)
system.mem_ctrls2.writePktSize::1                   0                       # Write request sizes (log2)
system.mem_ctrls2.writePktSize::2                   0                       # Write request sizes (log2)
system.mem_ctrls2.writePktSize::3                   0                       # Write request sizes (log2)
system.mem_ctrls2.writePktSize::4                   0                       # Write request sizes (log2)
system.mem_ctrls2.writePktSize::5                   0                       # Write request sizes (log2)
system.mem_ctrls2.writePktSize::6              323236                       # Write request sizes (log2)
system.mem_ctrls2.rdQLenPdf::0                 204845                       # What read queue length does an incoming req see
system.mem_ctrls2.rdQLenPdf::1                  10066                       # What read queue length does an incoming req see
system.mem_ctrls2.rdQLenPdf::2                  12643                       # What read queue length does an incoming req see
system.mem_ctrls2.rdQLenPdf::3                  15124                       # What read queue length does an incoming req see
system.mem_ctrls2.rdQLenPdf::4                  16545                       # What read queue length does an incoming req see
system.mem_ctrls2.rdQLenPdf::5                  16357                       # What read queue length does an incoming req see
system.mem_ctrls2.rdQLenPdf::6                  15002                       # What read queue length does an incoming req see
system.mem_ctrls2.rdQLenPdf::7                  13339                       # What read queue length does an incoming req see
system.mem_ctrls2.rdQLenPdf::8                  11457                       # What read queue length does an incoming req see
system.mem_ctrls2.rdQLenPdf::9                   9839                       # What read queue length does an incoming req see
system.mem_ctrls2.rdQLenPdf::10                  8455                       # What read queue length does an incoming req see
system.mem_ctrls2.rdQLenPdf::11                  7313                       # What read queue length does an incoming req see
system.mem_ctrls2.rdQLenPdf::12                  6263                       # What read queue length does an incoming req see
system.mem_ctrls2.rdQLenPdf::13                  5469                       # What read queue length does an incoming req see
system.mem_ctrls2.rdQLenPdf::14                  4677                       # What read queue length does an incoming req see
system.mem_ctrls2.rdQLenPdf::15                  4153                       # What read queue length does an incoming req see
system.mem_ctrls2.rdQLenPdf::16                  3562                       # What read queue length does an incoming req see
system.mem_ctrls2.rdQLenPdf::17                  3105                       # What read queue length does an incoming req see
system.mem_ctrls2.rdQLenPdf::18                  2616                       # What read queue length does an incoming req see
system.mem_ctrls2.rdQLenPdf::19                  2156                       # What read queue length does an incoming req see
system.mem_ctrls2.rdQLenPdf::20                  1826                       # What read queue length does an incoming req see
system.mem_ctrls2.rdQLenPdf::21                  1508                       # What read queue length does an incoming req see
system.mem_ctrls2.rdQLenPdf::22                  1253                       # What read queue length does an incoming req see
system.mem_ctrls2.rdQLenPdf::23                  1074                       # What read queue length does an incoming req see
system.mem_ctrls2.rdQLenPdf::24                   913                       # What read queue length does an incoming req see
system.mem_ctrls2.rdQLenPdf::25                   735                       # What read queue length does an incoming req see
system.mem_ctrls2.rdQLenPdf::26                   640                       # What read queue length does an incoming req see
system.mem_ctrls2.rdQLenPdf::27                   545                       # What read queue length does an incoming req see
system.mem_ctrls2.rdQLenPdf::28                   438                       # What read queue length does an incoming req see
system.mem_ctrls2.rdQLenPdf::29                   337                       # What read queue length does an incoming req see
system.mem_ctrls2.rdQLenPdf::30                   247                       # What read queue length does an incoming req see
system.mem_ctrls2.rdQLenPdf::31                   470                       # What read queue length does an incoming req see
system.mem_ctrls2.wrQLenPdf::0                  51290                       # What write queue length does an incoming req see
system.mem_ctrls2.wrQLenPdf::1                  57635                       # What write queue length does an incoming req see
system.mem_ctrls2.wrQLenPdf::2                  59814                       # What write queue length does an incoming req see
system.mem_ctrls2.wrQLenPdf::3                  60061                       # What write queue length does an incoming req see
system.mem_ctrls2.wrQLenPdf::4                  59139                       # What write queue length does an incoming req see
system.mem_ctrls2.wrQLenPdf::5                  12720                       # What write queue length does an incoming req see
system.mem_ctrls2.wrQLenPdf::6                  10805                       # What write queue length does an incoming req see
system.mem_ctrls2.wrQLenPdf::7                  11772                       # What write queue length does an incoming req see
system.mem_ctrls2.bytesPerActivate::samples       187955                       # Bytes accessed per row activation
system.mem_ctrls2.bytesPerActivate::mean   240.467091                       # Bytes accessed per row activation
system.mem_ctrls2.bytesPerActivate::gmean   187.088048                       # Bytes accessed per row activation
system.mem_ctrls2.bytesPerActivate::stdev   183.871355                       # Bytes accessed per row activation
system.mem_ctrls2.bytesPerActivate::0-127        40385     21.49%     21.49% # Bytes accessed per row activation
system.mem_ctrls2.bytesPerActivate::128-255        58683     31.22%     52.71% # Bytes accessed per row activation
system.mem_ctrls2.bytesPerActivate::256-383        67945     36.15%     88.86% # Bytes accessed per row activation
system.mem_ctrls2.bytesPerActivate::384-511         7359      3.92%     92.77% # Bytes accessed per row activation
system.mem_ctrls2.bytesPerActivate::512-639         4570      2.43%     95.20% # Bytes accessed per row activation
system.mem_ctrls2.bytesPerActivate::640-767         2533      1.35%     96.55% # Bytes accessed per row activation
system.mem_ctrls2.bytesPerActivate::768-895         1754      0.93%     97.49% # Bytes accessed per row activation
system.mem_ctrls2.bytesPerActivate::896-1023         1182      0.63%     98.11% # Bytes accessed per row activation
system.mem_ctrls2.bytesPerActivate::1024-1151         3544      1.89%    100.00% # Bytes accessed per row activation
system.mem_ctrls2.bytesPerActivate::total       187955                       # Bytes accessed per row activation
system.mem_ctrls2.rdPerTurnAround::samples        52674                       # Reads before turning the bus around for writes
system.mem_ctrls2.rdPerTurnAround::mean      7.270608                       # Reads before turning the bus around for writes
system.mem_ctrls2.rdPerTurnAround::stdev    14.717033                       # Reads before turning the bus around for writes
system.mem_ctrls2.rdPerTurnAround::0-127        52668     99.99%     99.99% # Reads before turning the bus around for writes
system.mem_ctrls2.rdPerTurnAround::128-255            4      0.01%    100.00% # Reads before turning the bus around for writes
system.mem_ctrls2.rdPerTurnAround::1152-1279            1      0.00%    100.00% # Reads before turning the bus around for writes
system.mem_ctrls2.rdPerTurnAround::2816-2943            1      0.00%    100.00% # Reads before turning the bus around for writes
system.mem_ctrls2.rdPerTurnAround::total        52674                       # Reads before turning the bus around for writes
system.mem_ctrls2.wrPerTurnAround::samples        52674                       # Writes before turning the bus around for reads
system.mem_ctrls2.wrPerTurnAround::mean      6.136538                       # Writes before turning the bus around for reads
system.mem_ctrls2.wrPerTurnAround::gmean     5.785288                       # Writes before turning the bus around for reads
system.mem_ctrls2.wrPerTurnAround::stdev     2.616075                       # Writes before turning the bus around for reads
system.mem_ctrls2.wrPerTurnAround::4-7          44097     83.72%     83.72% # Writes before turning the bus around for reads
system.mem_ctrls2.wrPerTurnAround::8-11          5136      9.75%     93.47% # Writes before turning the bus around for reads
system.mem_ctrls2.wrPerTurnAround::12-15         1793      3.40%     96.87% # Writes before turning the bus around for reads
system.mem_ctrls2.wrPerTurnAround::16-19         1648      3.13%    100.00% # Writes before turning the bus around for reads
system.mem_ctrls2.wrPerTurnAround::total        52674                       # Writes before turning the bus around for reads
system.mem_ctrls2.totQLat                 23499483378                       # Total ticks spent queuing
system.mem_ctrls2.totMemAccLat            30680208378                       # Total ticks spent from burst creation until serviced by the DRAM
system.mem_ctrls2.totBusLat                1914860000                       # Total ticks spent in databus transfers
system.mem_ctrls2.avgQLat                    61360.84                       # Average queueing delay per DRAM burst
system.mem_ctrls2.avgBusLat                   5000.00                       # Average bus latency per DRAM burst
system.mem_ctrls2.avgMemAccLat               80110.84                       # Average memory access latency per DRAM burst
system.mem_ctrls2.avgRdBW                      158.74                       # Average DRAM read bandwidth in MiByte/s
system.mem_ctrls2.avgWrBW                      133.98                       # Average achieved write bandwidth in MiByte/s
system.mem_ctrls2.avgRdBWSys                   158.75                       # Average system read bandwidth in MiByte/s
system.mem_ctrls2.avgWrBWSys                   133.98                       # Average system write bandwidth in MiByte/s
system.mem_ctrls2.peakBW                     12800.00                       # Theoretical peak bandwidth in MiByte/s
system.mem_ctrls2.busUtil                        2.29                       # Data bus utilization in percentage
system.mem_ctrls2.busUtilRead                    1.24                       # Data bus utilization in percentage for reads
system.mem_ctrls2.busUtilWrite                   1.05                       # Data bus utilization in percentage for writes
system.mem_ctrls2.avgRdQLen                      1.16                       # Average read queue length when enqueuing
system.mem_ctrls2.avgWrQLen                      2.99                       # Average write queue length when enqueuing
system.mem_ctrls2.readRowHits                  288334                       # Number of row buffer hits during reads
system.mem_ctrls2.writeRowHits                 229914                       # Number of row buffer hits during writes
system.mem_ctrls2.readRowHitRate                75.29                       # Row buffer hit rate for reads
system.mem_ctrls2.writeRowHitRate               71.13                       # Row buffer hit rate for writes
system.mem_ctrls2.avgGap                    218629.49                       # Average gap between requests
system.mem_ctrls2.pageHitRate                   73.38                       # Row buffer hit rate, read and write combined
system.mem_ctrls2.memoryStateTime::IDLE   27138847000                       # Time in different power states
system.mem_ctrls2.memoryStateTime::REF     5155800000                       # Time in different power states
system.mem_ctrls2.memoryStateTime::PRE_PDN            0                       # Time in different power states
system.mem_ctrls2.memoryStateTime::ACT   122107199500                       # Time in different power states
system.mem_ctrls2.memoryStateTime::ACT_PDN            0                       # Time in different power states
system.mem_ctrls2.actEnergy::0              716861880                       # Energy for activate commands per rank (pJ)
system.mem_ctrls2.actEnergy::1              704062800                       # Energy for activate commands per rank (pJ)
system.mem_ctrls2.preEnergy::0              391144875                       # Energy for precharge commands per rank (pJ)
system.mem_ctrls2.preEnergy::1              384161250                       # Energy for precharge commands per rank (pJ)
system.mem_ctrls2.readEnergy::0            1501149000                       # Energy for read commands per rank (pJ)
system.mem_ctrls2.readEnergy::1            1486017000                       # Energy for read commands per rank (pJ)
system.mem_ctrls2.writeEnergy::0           1049474880                       # Energy for write commands per rank (pJ)
system.mem_ctrls2.writeEnergy::1           1045062000                       # Energy for write commands per rank (pJ)
system.mem_ctrls2.refreshEnergy::0        10084744800                       # Energy for refresh commands per rank (pJ)
system.mem_ctrls2.refreshEnergy::1        10084744800                       # Energy for refresh commands per rank (pJ)
system.mem_ctrls2.actBackEnergy::0        60060919095                       # Energy for active background per rank (pJ)
system.mem_ctrls2.actBackEnergy::1        59591235960                       # Energy for active background per rank (pJ)
system.mem_ctrls2.preBackEnergy::0        39955941750                       # Energy for precharge background per rank (pJ)
system.mem_ctrls2.preBackEnergy::1        40367944500                       # Energy for precharge background per rank (pJ)
system.mem_ctrls2.totalEnergy::0         113760236280                       # Total energy per rank (pJ)
system.mem_ctrls2.totalEnergy::1         113663228310                       # Total energy per rank (pJ)
system.mem_ctrls2.averagePower::0          736.781472                       # Core power per rank (mW)
system.mem_ctrls2.averagePower::1          736.153189                       # Core power per rank (mW)
system.mem_ctrls3.bytes_read::ruby.dir_cntrl3     24491584                       # Number of bytes read from this memory
system.mem_ctrls3.bytes_read::total          24491584                       # Number of bytes read from this memory
system.mem_ctrls3.bytes_written::ruby.dir_cntrl3     20684928                       # Number of bytes written to this memory
system.mem_ctrls3.bytes_written::total       20684928                       # Number of bytes written to this memory
system.mem_ctrls3.num_reads::ruby.dir_cntrl3       382681                       # Number of read requests responded to by this memory
system.mem_ctrls3.num_reads::total             382681                       # Number of read requests responded to by this memory
system.mem_ctrls3.num_writes::ruby.dir_cntrl3       323202                       # Number of write requests responded to by this memory
system.mem_ctrls3.num_writes::total            323202                       # Number of write requests responded to by this memory
system.mem_ctrls3.bw_read::ruby.dir_cntrl3    158621501                       # Total read bandwidth from this memory (bytes/s)
system.mem_ctrls3.bw_read::total            158621501                       # Total read bandwidth from this memory (bytes/s)
system.mem_ctrls3.bw_write::ruby.dir_cntrl3    133967420                       # Write bandwidth from this memory (bytes/s)
system.mem_ctrls3.bw_write::total           133967420                       # Write bandwidth from this memory (bytes/s)
system.mem_ctrls3.bw_total::ruby.dir_cntrl3    292588920                       # Total bandwidth to/from this memory (bytes/s)
system.mem_ctrls3.bw_total::total           292588920                       # Total bandwidth to/from this memory (bytes/s)
system.mem_ctrls3.readReqs                     382681                       # Number of read requests accepted
system.mem_ctrls3.writeReqs                    323202                       # Number of write requests accepted
system.mem_ctrls3.readBursts                   382681                       # Number of DRAM read bursts, including those serviced by the write queue
system.mem_ctrls3.writeBursts                  323202                       # Number of DRAM write bursts, including those merged in the write queue
system.mem_ctrls3.bytesReadDRAM              24490944                       # Total number of bytes read from DRAM
system.mem_ctrls3.bytesReadWrQ                    640                       # Total number of bytes read from write queue
system.mem_ctrls3.bytesWritten               20684800                       # Total number of bytes written to DRAM
system.mem_ctrls3.bytesReadSys               24491584                       # Total read bytes from the system interface side
system.mem_ctrls3.bytesWrittenSys            20684928                       # Total written bytes from the system interface side
system.mem_ctrls3.servicedByWrQ                    10                       # Number of DRAM read bursts serviced by the write queue
system.mem_ctrls3.mergedWrBursts                    0                       # Number of DRAM write bursts merged with an existing one
system.mem_ctrls3.neitherReadNorWriteReqs            0                       # Number of requests that are neither read nor write
system.mem_ctrls3.perBankRdBursts::0            23631                       # Per bank write bursts
system.mem_ctrls3.perBankRdBursts::1            24302                       # Per bank write bursts
system.mem_ctrls3.perBankRdBursts::2            23816                       # Per bank write bursts
system.mem_ctrls3.perBankRdBursts::3            24238                       # Per bank write bursts
system.mem_ctrls3.perBankRdBursts::4            23816                       # Per bank write bursts
system.mem_ctrls3.perBankRdBursts::5            24166                       # Per bank write bursts
system.mem_ctrls3.perBankRdBursts::6            24228                       # Per bank write bursts
system.mem_ctrls3.perBankRdBursts::7            24039                       # Per bank write bursts
system.mem_ctrls3.perBankRdBursts::8            23890                       # Per bank write bursts
system.mem_ctrls3.perBankRdBursts::9            24026                       # Per bank write bursts
system.mem_ctrls3.perBankRdBursts::10           23883                       # Per bank write bursts
system.mem_ctrls3.perBankRdBursts::11           24276                       # Per bank write bursts
system.mem_ctrls3.perBankRdBursts::12           23558                       # Per bank write bursts
system.mem_ctrls3.perBankRdBursts::13           23446                       # Per bank write bursts
system.mem_ctrls3.perBankRdBursts::14           23607                       # Per bank write bursts
system.mem_ctrls3.perBankRdBursts::15           23749                       # Per bank write bursts
system.mem_ctrls3.perBankWrBursts::0            20220                       # Per bank write bursts
system.mem_ctrls3.perBankWrBursts::1            20139                       # Per bank write bursts
system.mem_ctrls3.perBankWrBursts::2            20133                       # Per bank write bursts
system.mem_ctrls3.perBankWrBursts::3            20419                       # Per bank write bursts
system.mem_ctrls3.perBankWrBursts::4            20050                       # Per bank write bursts
system.mem_ctrls3.perBankWrBursts::5            20335                       # Per bank write bursts
system.mem_ctrls3.perBankWrBursts::6            20335                       # Per bank write bursts
system.mem_ctrls3.perBankWrBursts::7            20297                       # Per bank write bursts
system.mem_ctrls3.perBankWrBursts::8            20395                       # Per bank write bursts
system.mem_ctrls3.perBankWrBursts::9            20192                       # Per bank write bursts
system.mem_ctrls3.perBankWrBursts::10           20128                       # Per bank write bursts
system.mem_ctrls3.perBankWrBursts::11           20170                       # Per bank write bursts
system.mem_ctrls3.perBankWrBursts::12           19929                       # Per bank write bursts
system.mem_ctrls3.perBankWrBursts::13           20189                       # Per bank write bursts
system.mem_ctrls3.perBankWrBursts::14           20176                       # Per bank write bursts
system.mem_ctrls3.perBankWrBursts::15           20093                       # Per bank write bursts
system.mem_ctrls3.numRdRetry                      247                       # Number of times read queue was full causing retry
system.mem_ctrls3.numWrRetry                     6336                       # Number of times write queue was full causing retry
system.mem_ctrls3.totGap                 154401552000                       # Total gap between requests
system.mem_ctrls3.readPktSize::0                    0                       # Read request sizes (log2)
system.mem_ctrls3.readPktSize::1                    0                       # Read request sizes (log2)
system.mem_ctrls3.readPktSize::2                    0                       # Read request sizes (log2)
system.mem_ctrls3.readPktSize::3                    0                       # Read request sizes (log2)
system.mem_ctrls3.readPktSize::4                    0                       # Read request sizes (log2)
system.mem_ctrls3.readPktSize::5                    0                       # Read request sizes (log2)
system.mem_ctrls3.readPktSize::6               382681                       # Read request sizes (log2)
system.mem_ctrls3.writePktSize::0                   0                       # Write request sizes (log2)
system.mem_ctrls3.writePktSize::1                   0                       # Write request sizes (log2)
system.mem_ctrls3.writePktSize::2                   0                       # Write request sizes (log2)
system.mem_ctrls3.writePktSize::3                   0                       # Write request sizes (log2)
system.mem_ctrls3.writePktSize::4                   0                       # Write request sizes (log2)
system.mem_ctrls3.writePktSize::5                   0                       # Write request sizes (log2)
system.mem_ctrls3.writePktSize::6              323202                       # Write request sizes (log2)
system.mem_ctrls3.rdQLenPdf::0                 204394                       # What read queue length does an incoming req see
system.mem_ctrls3.rdQLenPdf::1                  10072                       # What read queue length does an incoming req see
system.mem_ctrls3.rdQLenPdf::2                  12659                       # What read queue length does an incoming req see
system.mem_ctrls3.rdQLenPdf::3                  15017                       # What read queue length does an incoming req see
system.mem_ctrls3.rdQLenPdf::4                  16435                       # What read queue length does an incoming req see
system.mem_ctrls3.rdQLenPdf::5                  16341                       # What read queue length does an incoming req see
system.mem_ctrls3.rdQLenPdf::6                  14984                       # What read queue length does an incoming req see
system.mem_ctrls3.rdQLenPdf::7                  13356                       # What read queue length does an incoming req see
system.mem_ctrls3.rdQLenPdf::8                  11445                       # What read queue length does an incoming req see
system.mem_ctrls3.rdQLenPdf::9                  10239                       # What read queue length does an incoming req see
system.mem_ctrls3.rdQLenPdf::10                  8641                       # What read queue length does an incoming req see
system.mem_ctrls3.rdQLenPdf::11                  7347                       # What read queue length does an incoming req see
system.mem_ctrls3.rdQLenPdf::12                  6424                       # What read queue length does an incoming req see
system.mem_ctrls3.rdQLenPdf::13                  5551                       # What read queue length does an incoming req see
system.mem_ctrls3.rdQLenPdf::14                  4781                       # What read queue length does an incoming req see
system.mem_ctrls3.rdQLenPdf::15                  4133                       # What read queue length does an incoming req see
system.mem_ctrls3.rdQLenPdf::16                  3562                       # What read queue length does an incoming req see
system.mem_ctrls3.rdQLenPdf::17                  3050                       # What read queue length does an incoming req see
system.mem_ctrls3.rdQLenPdf::18                  2524                       # What read queue length does an incoming req see
system.mem_ctrls3.rdQLenPdf::19                  2174                       # What read queue length does an incoming req see
system.mem_ctrls3.rdQLenPdf::20                  1846                       # What read queue length does an incoming req see
system.mem_ctrls3.rdQLenPdf::21                  1487                       # What read queue length does an incoming req see
system.mem_ctrls3.rdQLenPdf::22                  1302                       # What read queue length does an incoming req see
system.mem_ctrls3.rdQLenPdf::23                  1024                       # What read queue length does an incoming req see
system.mem_ctrls3.rdQLenPdf::24                   879                       # What read queue length does an incoming req see
[...]
system.ruby.L2Cache_Controller.S_I.Ack::total            2                      
system.ruby.L2Cache_Controller.S_I.Ack_all |           0      0.00%      0.00% |           4     28.57%     28.57% |           1      7.14%     35.71% |           1      7.14%     42.86% |           0      0.00%     42.86% |           2     14.29%     57.14% |           0      0.00%     57.14% |           0      0.00%     57.14% |           0      0.00%     57.14% |           1      7.14%     64.29% |           1      7.14%     71.43% |           0      0.00%     71.43% |           0      0.00%     71.43% |           0      0.00%     71.43% |           1      7.14%     78.57% |           0      0.00%     78.57% |           0      0.00%     78.57% |           0      0.00%     78.57% |           1      7.14%     85.71% |           0      0.00%     85.71% |           0      0.00%     85.71% |           0      0.00%     85.71% |           0      0.00%     85.71% |           0      0.00%     85.71% |           1      7.14%     92.86% |           0      0.00%     92.86% |           0      0.00%     92.86% |           0      0.00%     92.86% |           1      7.14%    100.00% |           0      0.00%    100.00% |           0      0.00%    100.00% |           0      0.00%    100.00%
system.ruby.L2Cache_Controller.S_I.Ack_all::total           14                      
system.ruby.L2Cache_Controller.ISS.L1_GETS |           1    100.00%    100.00% |           0      0.00%    100.00% |           0      0.00%    100.00% |           0      0.00%    100.00% |           0      0.00%    100.00% |           0      0.00%    100.00% |           0      0.00%    100.00% |           0      0.00%    100.00% |           0      0.00%    100.00% |           0      0.00%    100.00% |           0      0.00%    100.00% |           0      0.00%    100.00% |           0      0.00%    100.00% |           0      0.00%    100.00% |           0      0.00%    100.00% |           0      0.00%    100.00% |           0      0.00%    100.00% |           0      0.00%    100.00% |           0      0.00%    100.00% |           0      0.00%    100.00% |           0      0.00%    100.00% |           0      0.00%    100.00% |           0      0.00%    100.00% |           0      0.00%    100.00% |           0      0.00%    100.00% |           0      0.00%    100.00% |           0      0.00%    100.00% |           0      0.00%    100.00% |           0      0.00%    100.00% |           0      0.00%    100.00% |           0      0.00%    100.00% |           0      0.00%    100.00%
system.ruby.L2Cache_Controller.ISS.L1_GETS::total            1                      
system.ruby.L2Cache_Controller.ISS.Mem_Data |       18665      7.92%      7.92% |        7080      3.00%     10.92% |        7087      3.01%     13.93% |        7033      2.98%     16.91% |        7001      2.97%     19.88% |        6985      2.96%     22.85% |        6996      2.97%     25.81% |        6991      2.97%     28.78% |        7030      2.98%     31.76% |        7031      2.98%     34.75% |        7064      3.00%     37.74% |        6989      2.97%     40.71% |        6991      2.97%     43.67% |        6993      2.97%     46.64% |        6995      2.97%     49.61% |        6958      2.95%     52.56% |        6998      2.97%     55.53% |        6973      2.96%     58.49% |        7006      2.97%     61.46% |        6985      2.96%     64.42% |        6983      2.96%     67.39% |        6968      2.96%     70.34% |        6992      2.97%     73.31% |        6984      2.96%     76.27% |        7004      2.97%     79.24% |        7007      2.97%     82.22% |        6984      2.96%     85.18% |        6962      2.95%     88.13% |        7006      2.97%     91.10% |        6984      2.96%     94.07% |        6958      2.95%     97.02% |        7025      2.98%    100.00%
system.ruby.L2Cache_Controller.ISS.Mem_Data::total       235708                      
system.ruby.L2Cache_Controller.IS.Mem_Data |         545      3.26%      3.26% |         472      2.82%      6.08% |         467      2.79%      8.88% |         467      2.79%     11.67% |         513      3.07%     14.74% |         469      2.81%     17.55% |         506      3.03%     20.57% |         532      3.18%     23.76% |         550      3.29%     27.05% |         491      2.94%     29.98% |         536      3.21%     33.19% |         568      3.40%     36.59% |         623      3.73%     40.31% |         567      3.39%     43.71% |         583      3.49%     47.19% |         525      3.14%     50.34% |         535      3.20%     53.54% |         574      3.43%     56.97% |         567      3.39%     60.36% |         514      3.07%     63.44% |         508      3.04%     66.48% |         524      3.13%     69.61% |         483      2.89%     72.50% |         472      2.82%     75.32% |         548      3.28%     78.60% |         595      3.56%     82.16% |         535      3.20%     85.36% |         482      2.88%     88.24% |         493      2.95%     91.19% |         512      3.06%     94.26% |         492      2.94%     97.20% |         468      2.80%    100.00%
system.ruby.L2Cache_Controller.IS.Mem_Data::total        16716                      
system.ruby.L2Cache_Controller.IM.Mem_Data |       40392      3.13%      3.13% |       40330      3.12%      6.25% |       40342      3.12%      9.38% |       40347      3.13%     12.50% |       40353      3.13%     15.63% |       40363      3.13%     18.75% |       40339      3.12%     21.88% |       40336      3.12%     25.00% |       40350      3.13%     28.13% |       40344      3.12%     31.25% |       40329      3.12%     34.38% |       40358      3.13%     37.50% |       40339      3.12%     40.63% |       40338      3.12%     43.75% |       40341      3.12%     46.88% |       40330      3.12%     50.00% |       40352      3.13%     53.13% |       40352      3.13%     56.25% |       40349      3.13%     59.38% |       40345      3.13%     62.50% |       40340      3.12%     65.63% |       40354      3.13%     68.75% |       40339      3.12%     71.88% |       40341      3.12%     75.00% |       40347      3.13%     78.13% |       40345      3.13%     81.25% |       40349      3.13%     84.38% |       40337      3.12%     87.50% |       40336      3.12%     90.63% |       40338      3.12%     93.75% |       40351      3.13%     96.88% |       40332      3.12%    100.00%
system.ruby.L2Cache_Controller.IM.Mem_Data::total      1291038                      
system.ruby.L2Cache_Controller.SS_MB.Exclusive_Unblock |           4      8.89%      8.89% |           6     13.33%     22.22% |           2      4.44%     26.67% |           6     13.33%     40.00% |           1      2.22%     42.22% |           0      0.00%     42.22% |           1      2.22%     44.44% |           0      0.00%     44.44% |           0      0.00%     44.44% |           1      2.22%     46.67% |           1      2.22%     48.89% |           0      0.00%     48.89% |           4      8.89%     57.78% |           0      0.00%     57.78% |           3      6.67%     64.44% |           0      0.00%     64.44% |           0      0.00%     64.44% |           0      0.00%     64.44% |           9     20.00%     84.44% |           0      0.00%     84.44% |           0      0.00%     84.44% |           0      0.00%     84.44% |           0      0.00%     84.44% |           0      0.00%     84.44% |           1      2.22%     86.67% |           2      4.44%     91.11% |           1      2.22%     93.33% |           1      2.22%     95.56% |           0      0.00%     95.56% |           1      2.22%     97.78% |           1      2.22%    100.00% |           0      0.00%    100.00%
system.ruby.L2Cache_Controller.SS_MB.Exclusive_Unblock::total           45                      
system.ruby.L2Cache_Controller.MT_MB.L1_PUTX |           2    100.00%    100.00% |           0      0.00%    100.00% |           0      0.00%    100.00% |           0      0.00%    100.00% |           0      0.00%    100.00% |           0      0.00%    100.00% |           0      0.00%    100.00% |           0      0.00%    100.00% |           0      0.00%    100.00% |           0      0.00%    100.00% |           0      0.00%    100.00% |           0      0.00%    100.00% |           0      0.00%    100.00% |           0      0.00%    100.00% |           0      0.00%    100.00% |           0      0.00%    100.00% |           0      0.00%    100.00% |           0      0.00%    100.00% |           0      0.00%    100.00% |           0      0.00%    100.00% |           0      0.00%    100.00% |           0      0.00%    100.00% |           0      0.00%    100.00% |           0      0.00%    100.00% |           0      0.00%    100.00% |           0      0.00%    100.00% |           0      0.00%    100.00% |           0      0.00%    100.00% |           0      0.00%    100.00% |           0      0.00%    100.00% |           0      0.00%    100.00% |           0      0.00%    100.00%
system.ruby.L2Cache_Controller.MT_MB.L1_PUTX::total            2                      
system.ruby.L2Cache_Controller.MT_MB.Exclusive_Unblock |      173159      8.49%      8.49% |       64258      3.15%     11.63% |       58754      2.88%     14.51% |       58459      2.86%     17.38% |       57799      2.83%     20.21% |       56502      2.77%     22.98% |       55006      2.70%     25.67% |       55299      2.71%     28.38% |       58661      2.87%     31.26% |       57718      2.83%     34.09% |       60643      2.97%     37.06% |       60210      2.95%     40.01% |       56858      2.79%     42.80% |       56794      2.78%     45.58% |       56448      2.77%     48.34% |       56867      2.79%     51.13% |       59200      2.90%     54.03% |       58514      2.87%     56.90% |       59885      2.93%     59.83% |       60878      2.98%     62.82% |       60909      2.98%     65.80% |       63096      3.09%     68.89% |       64326      3.15%     72.05% |       60549      2.97%     75.01% |       60945      2.99%     78.00% |       62471      3.06%     81.06% |       60797      2.98%     84.04% |       61417      3.01%     87.05% |       64095      3.14%     90.19% |       61913      3.03%     93.22% |       70023      3.43%     96.66% |       68237      3.34%    100.00%
system.ruby.L2Cache_Controller.MT_MB.Exclusive_Unblock::total      2040690                      
system.ruby.L2Cache_Controller.MT_IIB.WB_Data |           0      0.00%      0.00% |           0      0.00%      0.00% |           0      0.00%      0.00% |           0      0.00%      0.00% |           0      0.00%      0.00% |           1     50.00%     50.00% |           0      0.00%     50.00% |           0      0.00%     50.00% |           0      0.00%     50.00% |           0      0.00%     50.00% |           0      0.00%     50.00% |           0      0.00%     50.00% |           0      0.00%     50.00% |           0      0.00%     50.00% |           0      0.00%     50.00% |           0      0.00%     50.00% |           0      0.00%     50.00% |           0      0.00%     50.00% |           0      0.00%     50.00% |           0      0.00%     50.00% |           0      0.00%     50.00% |           0      0.00%     50.00% |           0      0.00%     50.00% |           0      0.00%     50.00% |           0      0.00%     50.00% |           0      0.00%     50.00% |           0      0.00%     50.00% |           0      0.00%     50.00% |           1     50.00%    100.00% |           0      0.00%    100.00% |           0      0.00%    100.00% |           0      0.00%    100.00%
system.ruby.L2Cache_Controller.MT_IIB.WB_Data::total            2                      
system.ruby.L2Cache_Controller.MT_IIB.WB_Data_clean |          29    100.00%    100.00% |           0      0.00%    100.00% |           0      0.00%    100.00% |           0      0.00%    100.00% |           0      0.00%    100.00% |           0      0.00%    100.00% |           0      0.00%    100.00% |           0      0.00%    100.00% |           0      0.00%    100.00% |           0      0.00%    100.00% |           0      0.00%    100.00% |           0      0.00%    100.00% |           0      0.00%    100.00% |           0      0.00%    100.00% |           0      0.00%    100.00% |           0      0.00%    100.00% |           0      0.00%    100.00% |           0      0.00%    100.00% |           0      0.00%    100.00% |           0      0.00%    100.00% |           0      0.00%    100.00% |           0      0.00%    100.00% |           0      0.00%    100.00% |           0      0.00%    100.00% |           0      0.00%    100.00% |           0      0.00%    100.00% |           0      0.00%    100.00% |           0      0.00%    100.00% |           0      0.00%    100.00% |           0      0.00%    100.00% |           0      0.00%    100.00% |           0      0.00%    100.00%
system.ruby.L2Cache_Controller.MT_IIB.WB_Data_clean::total           29                      
system.ruby.L2Cache_Controller.MT_SB.Unblock |          29     93.55%     93.55% |           0      0.00%     93.55% |           0      0.00%     93.55% |           0      0.00%     93.55% |           0      0.00%     93.55% |           1      3.23%     96.77% |           0      0.00%     96.77% |           0      0.00%     96.77% |           0      0.00%     96.77% |           0      0.00%     96.77% |           0      0.00%     96.77% |           0      0.00%     96.77% |           0      0.00%     96.77% |           0      0.00%     96.77% |           0      0.00%     96.77% |           0      0.00%     96.77% |           0      0.00%     96.77% |           0      0.00%     96.77% |           0      0.00%     96.77% |           0      0.00%     96.77% |           0      0.00%     96.77% |           0      0.00%     96.77% |           0      0.00%     96.77% |           0      0.00%     96.77% |           0      0.00%     96.77% |           0      0.00%     96.77% |           0      0.00%     96.77% |           0      0.00%     96.77% |           1      3.23%    100.00% |           0      0.00%    100.00% |           0      0.00%    100.00% |           0      0.00%    100.00%
system.ruby.L2Cache_Controller.MT_SB.Unblock::total           31                      
system.ruby.SimicsNetworkPortInterface_Controller.MessageSend |      118650     21.32%     21.32% |      278212     50.00%     71.32% |       38478      6.92%     78.24% |       41667      7.49%     85.73% |       38449      6.91%     92.64% |       40968      7.36%    100.00% |           0      0.00%    100.00% |           0      0.00%    100.00% |           0      0.00%    100.00% |           0      0.00%    100.00% |           0      0.00%    100.00% |           0      0.00%    100.00% |           0      0.00%    100.00% |           0      0.00%    100.00% |           0      0.00%    100.00% |           0      0.00%    100.00% |           0      0.00%    100.00% |           0      0.00%    100.00% |           0      0.00%    100.00% |           0      0.00%    100.00% |           0      0.00%    100.00% |           0      0.00%    100.00% |           0      0.00%    100.00% |           0      0.00%    100.00% |           0      0.00%    100.00% |           0      0.00%    100.00% |           0      0.00%    100.00% |           0      0.00%    100.00% |           0      0.00%    100.00% |           0      0.00%    100.00% |           0      0.00%    100.00% |           0      0.00%    100.00%
system.ruby.SimicsNetworkPortInterface_Controller.MessageSend::total       556424                      
system.ruby.SimicsNetworkPortInterface_Controller.MessageRecv |      118650     21.32%     21.32% |      278212     50.00%     71.32% |       38478      6.92%     78.24% |       41667      7.49%     85.73% |       38449      6.91%     92.64% |       40968      7.36%    100.00% |           0      0.00%    100.00% |           0      0.00%    100.00% |           0      0.00%    100.00% |           0      0.00%    100.00% |           0      0.00%    100.00% |           0      0.00%    100.00% |           0      0.00%    100.00% |           0      0.00%    100.00% |           0      0.00%    100.00% |           0      0.00%    100.00% |           0      0.00%    100.00% |           0      0.00%    100.00% |           0      0.00%    100.00% |           0      0.00%    100.00% |           0      0.00%    100.00% |           0      0.00%    100.00% |           0      0.00%    100.00% |           0      0.00%    100.00% |           0      0.00%    100.00% |           0      0.00%    100.00% |           0      0.00%    100.00% |           0      0.00%    100.00% |           0      0.00%    100.00% |           0      0.00%    100.00% |           0      0.00%    100.00% |           0      0.00%    100.00%
system.ruby.SimicsNetworkPortInterface_Controller.MessageRecv::total       556424                      
system.ruby.SimicsNetworkPortInterface_Controller.A.MessageSend |      118650     21.32%     21.32% |      278212     50.00%     71.32% |       38478      6.92%     78.24% |       41667      7.49%     85.73% |       38449      6.91%     92.64% |       40968      7.36%    100.00% |           0      0.00%    100.00% |           0      0.00%    100.00% |           0      0.00%    100.00% |           0      0.00%    100.00% |           0      0.00%    100.00% |           0      0.00%    100.00% |           0      0.00%    100.00% |           0      0.00%    100.00% |           0      0.00%    100.00% |           0      0.00%    100.00% |           0      0.00%    100.00% |           0      0.00%    100.00% |           0      0.00%    100.00% |           0      0.00%    100.00% |           0      0.00%    100.00% |           0      0.00%    100.00% |           0      0.00%    100.00% |           0      0.00%    100.00% |           0      0.00%    100.00% |           0      0.00%    100.00% |           0      0.00%    100.00% |           0      0.00%    100.00% |           0      0.00%    100.00% |           0      0.00%    100.00% |           0      0.00%    100.00% |           0      0.00%    100.00%
system.ruby.SimicsNetworkPortInterface_Controller.A.MessageSend::total       556424                      
system.ruby.SimicsNetworkPortInterface_Controller.A.MessageRecv |      118650     21.32%     21.32% |      278212     50.00%     71.32% |       38478      6.92%     78.24% |       41667      7.49%     85.73% |       38449      6.91%     92.64% |       40968      7.36%    100.00% |           0      0.00%    100.00% |           0      0.00%    100.00% |           0      0.00%    100.00% |           0      0.00%    100.00% |           0      0.00%    100.00% |           0      0.00%    100.00% |           0      0.00%    100.00% |           0      0.00%    100.00% |           0      0.00%    100.00% |           0      0.00%    100.00% |           0      0.00%    100.00% |           0      0.00%    100.00% |           0      0.00%    100.00% |           0      0.00%    100.00% |           0      0.00%    100.00% |           0      0.00%    100.00% |           0      0.00%    100.00% |           0      0.00%    100.00% |           0      0.00%    100.00% |           0      0.00%    100.00% |           0      0.00%    100.00% |           0      0.00%    100.00% |           0      0.00%    100.00% |           0      0.00%    100.00% |           0      0.00%    100.00% |           0      0.00%    100.00%
system.ruby.SimicsNetworkPortInterface_Controller.A.MessageRecv::total       556424                      
system.switch_cpus.kern.inst.arm                    0                       # number of arm instructions executed
system.switch_cpus.kern.inst.quiesce                0                       # number of quiesce instructions executed

---------- End Simulation Statistics   ----------
