
---------- Begin Simulation Statistics ----------
sim_seconds                                  0.153836                       # Number of seconds simulated
sim_ticks                                153836016000                       # Number of ticks simulated
final_tick                               5330004094500                       # Number of ticks from beginning of simulation (restored from checkpoints and never reset)
sim_freq                                 1000000000000                       # Frequency of simulated ticks
host_inst_rate                                  40601                       # Simulator instruction rate (inst/s)
host_op_rate                                    77301                       # Simulator op (including micro ops) rate (op/s)
host_tick_rate                               96697894                       # Simulator tick rate (ticks/s)
host_mem_usage                                4155876                       # Number of bytes of host memory used
host_seconds                                  1590.89                       # Real time elapsed on the host
sim_insts                                    64591311                       # Number of instructions simulated
sim_ops                                     122978334                       # Number of ops (including micro ops) simulated
system.voltage_domain.voltage                       1                       # Voltage in Volts
system.clk_domain.clock                           500                       # Clock period in ticks
system.mem_ctrls0.bytes_read::ruby.dir_cntrl0     25268992                       # Number of bytes read from this memory
system.mem_ctrls0.bytes_read::total          25268992                       # Number of bytes read from this memory
system.mem_ctrls0.bytes_written::ruby.dir_cntrl0     21420992                       # Number of bytes written to this memory
system.mem_ctrls0.bytes_written::total       21420992                       # Number of bytes written to this memory
system.mem_ctrls0.num_reads::ruby.dir_cntrl0       394828                       # Number of read requests responded to by this memory
system.mem_ctrls0.num_reads::total             394828                       # Number of read requests responded to by this memory
system.mem_ctrls0.num_writes::ruby.dir_cntrl0       334703                       # Number of write requests responded to by this memory
system.mem_ctrls0.num_writes::total            334703                       # Number of write requests responded to by this memory
system.mem_ctrls0.bw_read::ruby.dir_cntrl0    164259272                       # Total read bandwidth from this memory (bytes/s)
system.mem_ctrls0.bw_read::total            164259272                       # Total read bandwidth from this memory (bytes/s)
system.mem_ctrls0.bw_write::ruby.dir_cntrl0    139245624                       # Write bandwidth from this memory (bytes/s)
system.mem_ctrls0.bw_write::total           139245624                       # Write bandwidth from this memory (bytes/s)
system.mem_ctrls0.bw_total::ruby.dir_cntrl0    303504896                       # Total bandwidth to/from this memory (bytes/s)
system.mem_ctrls0.bw_total::total           303504896                       # Total bandwidth to/from this memory (bytes/s)
system.mem_ctrls0.readReqs                     394829                       # Number of read requests accepted
system.mem_ctrls0.writeReqs                    334703                       # Number of write requests accepted
system.mem_ctrls0.readBursts                   394829                       # Number of DRAM read bursts, including those serviced by the write queue
system.mem_ctrls0.writeBursts                  334703                       # Number of DRAM write bursts, including those merged in the write queue
system.mem_ctrls0.bytesReadDRAM              25268160                       # Total number of bytes read from DRAM
system.mem_ctrls0.bytesReadWrQ                    896                       # Total number of bytes read from write queue
system.mem_ctrls0.bytesWritten               21420800                       # Total number of bytes written to DRAM
system.mem_ctrls0.bytesReadSys               25269056                       # Total read bytes from the system interface side
system.mem_ctrls0.bytesWrittenSys            21420992                       # Total written bytes from the system interface side
system.mem_ctrls0.servicedByWrQ                    14                       # Number of DRAM read bursts serviced by the write queue
system.mem_ctrls0.mergedWrBursts                    0                       # Number of DRAM write bursts merged with an existing one
system.mem_ctrls0.neitherReadNorWriteReqs            0                       # Number of requests that are neither read nor write
system.mem_ctrls0.perBankRdBursts::0            24363                       # Per bank write bursts
system.mem_ctrls0.perBankRdBursts::1            25076                       # Per bank write bursts
system.mem_ctrls0.perBankRdBursts::2            24638                       # Per bank write bursts
system.mem_ctrls0.perBankRdBursts::3            24950                       # Per bank write bursts
system.mem_ctrls0.perBankRdBursts::4            24585                       # Per bank write bursts
system.mem_ctrls0.perBankRdBursts::5            24928                       # Per bank write bursts
system.mem_ctrls0.perBankRdBursts::6            24974                       # Per bank write bursts
system.mem_ctrls0.perBankRdBursts::7            24752                       # Per bank write bursts
system.mem_ctrls0.perBankRdBursts::8            24653                       # Per bank write bursts
system.mem_ctrls0.perBankRdBursts::9            24783                       # Per bank write bursts
system.mem_ctrls0.perBankRdBursts::10           24575                       # Per bank write bursts
system.mem_ctrls0.perBankRdBursts::11           25079                       # Per bank write bursts
system.mem_ctrls0.perBankRdBursts::12           24328                       # Per bank write bursts
system.mem_ctrls0.perBankRdBursts::13           24247                       # Per bank write bursts
system.mem_ctrls0.perBankRdBursts::14           24411                       # Per bank write bursts
system.mem_ctrls0.perBankRdBursts::15           24473                       # Per bank write bursts
system.mem_ctrls0.perBankWrBursts::0            20951                       # Per bank write bursts
system.mem_ctrls0.perBankWrBursts::1            20848                       # Per bank write bursts
system.mem_ctrls0.perBankWrBursts::2            20822                       # Per bank write bursts
system.mem_ctrls0.perBankWrBursts::3            21122                       # Per bank write bursts
system.mem_ctrls0.perBankWrBursts::4            20762                       # Per bank write bursts
system.mem_ctrls0.perBankWrBursts::5            21058                       # Per bank write bursts
system.mem_ctrls0.perBankWrBursts::6            21081                       # Per bank write bursts
system.mem_ctrls0.perBankWrBursts::7            21029                       # Per bank write bursts
system.mem_ctrls0.perBankWrBursts::8            21102                       # Per bank write bursts
system.mem_ctrls0.perBankWrBursts::9            20900                       # Per bank write bursts
system.mem_ctrls0.perBankWrBursts::10           20862                       # Per bank write bursts
system.mem_ctrls0.perBankWrBursts::11           20879                       # Per bank write bursts
system.mem_ctrls0.perBankWrBursts::12           20640                       # Per bank write bursts
system.mem_ctrls0.perBankWrBursts::13           20910                       # Per bank write bursts
system.mem_ctrls0.perBankWrBursts::14           20922                       # Per bank write bursts
system.mem_ctrls0.perBankWrBursts::15           20812                       # Per bank write bursts
system.mem_ctrls0.numRdRetry                   126796                       # Number of times read queue was full causing retry
system.mem_ctrls0.numWrRetry                    15317                       # Number of times write queue was full causing retry
system.mem_ctrls0.totGap                 153835752500                       # Total gap between requests
system.mem_ctrls0.readPktSize::0                    0                       # Read request sizes (log2)
system.mem_ctrls0.readPktSize::1                    0                       # Read request sizes (log2)
system.mem_ctrls0.readPktSize::2                    0                       # Read request sizes (log2)
system.mem_ctrls0.readPktSize::3                    0                       # Read request sizes (log2)
system.mem_ctrls0.readPktSize::4                    0                       # Read request sizes (log2)
system.mem_ctrls0.readPktSize::5                    0                       # Read request sizes (log2)
system.mem_ctrls0.readPktSize::6               394829                       # Read request sizes (log2)
system.mem_ctrls0.writePktSize::0                   0                       # Write request sizes (log2)
system.mem_ctrls0.writePktSize::1                   0                       # Write request sizes (log2)
system.mem_ctrls0.writePktSize::2                   0                       # Write request sizes (log2)
system.mem_ctrls0.writePktSize::3                   0                       # Write request sizes (log2)
system.mem_ctrls0.writePktSize::4                   0                       # Write request sizes (log2)
system.mem_ctrls0.writePktSize::5                   0                       # Write request sizes (log2)
system.mem_ctrls0.writePktSize::6              334703                       # Write request sizes (log2)
system.mem_ctrls0.rdQLenPdf::0                 204698                       # What read queue length does an incoming req see
system.mem_ctrls0.rdQLenPdf::1                   5905                       # What read queue length does an incoming req see
system.mem_ctrls0.rdQLenPdf::2                   3342                       # What read queue length does an incoming req see
system.mem_ctrls0.rdQLenPdf::3                    906                       # What read queue length does an incoming req see
system.mem_ctrls0.rdQLenPdf::4                   1053                       # What read queue length does an incoming req see
system.mem_ctrls0.rdQLenPdf::5                   1145                       # What read queue length does an incoming req see
system.mem_ctrls0.rdQLenPdf::6                   1262                       # What read queue length does an incoming req see
system.mem_ctrls0.rdQLenPdf::7                   1320                       # What read queue length does an incoming req see
system.mem_ctrls0.rdQLenPdf::8                   1272                       # What read queue length does an incoming req see
system.mem_ctrls0.rdQLenPdf::9                   1366                       # What read queue length does an incoming req see
system.mem_ctrls0.rdQLenPdf::10                  1342                       # What read queue length does an incoming req see
system.mem_ctrls0.rdQLenPdf::11                  1351                       # What read queue length does an incoming req see
system.mem_ctrls0.rdQLenPdf::12                  1421                       # What read queue length does an incoming req see
system.mem_ctrls0.rdQLenPdf::13                  1371                       # What read queue length does an incoming req see
system.mem_ctrls0.rdQLenPdf::14                  1440                       # What read queue length does an incoming req see
system.mem_ctrls0.rdQLenPdf::15                  1476                       # What read queue length does an incoming req see
system.mem_ctrls0.rdQLenPdf::16                  1534                       # What read queue length does an incoming req see
system.mem_ctrls0.rdQLenPdf::17                  1589                       # What read queue length does an incoming req see
system.mem_ctrls0.rdQLenPdf::18                  1712                       # What read queue length does an incoming req see
system.mem_ctrls0.rdQLenPdf::19                  1752                       # What read queue length does an incoming req see
system.mem_ctrls0.rdQLenPdf::20                  1768                       # What read queue length does an incoming req see
system.mem_ctrls0.rdQLenPdf::21                  1755                       # What read queue length does an incoming req see
system.mem_ctrls0.rdQLenPdf::22                  1845                       # What read queue length does an incoming req see
system.mem_ctrls0.rdQLenPdf::23                  1894                       # What read queue length does an incoming req see
system.mem_ctrls0.rdQLenPdf::24                  1959                       # What read queue length does an incoming req see
system.mem_ctrls0.rdQLenPdf::25                  2054                       # What read queue length does an incoming req see
system.mem_ctrls0.rdQLenPdf::26                  2255                       # What read queue length does an incoming req see
system.mem_ctrls0.rdQLenPdf::27                  2373                       # What read queue length does an incoming req see
system.mem_ctrls0.rdQLenPdf::28                  2556                       # What read queue length does an incoming req see
system.mem_ctrls0.rdQLenPdf::29                  2894                       # What read queue length does an incoming req see
system.mem_ctrls0.rdQLenPdf::30                  3517                       # What read queue length does an incoming req see
system.mem_ctrls0.rdQLenPdf::31                132688                       # What read queue length does an incoming req see
system.mem_ctrls0.wrQLenPdf::0                  48561                       # What write queue length does an incoming req see
system.mem_ctrls0.wrQLenPdf::1                  51406                       # What write queue length does an incoming req see
system.mem_ctrls0.wrQLenPdf::2                  53053                       # What write queue length does an incoming req see
system.mem_ctrls0.wrQLenPdf::3                  53459                       # What write queue length does an incoming req see
system.mem_ctrls0.wrQLenPdf::4                  54638                       # What write queue length does an incoming req see
system.mem_ctrls0.wrQLenPdf::5                  16641                       # What write queue length does an incoming req see
system.mem_ctrls0.wrQLenPdf::6                  21648                       # What write queue length does an incoming req see
system.mem_ctrls0.wrQLenPdf::7                  35297                       # What write queue length does an incoming req see
system.mem_ctrls0.bytesPerActivate::samples       216866                       # Bytes accessed per row activation
system.mem_ctrls0.bytesPerActivate::mean   215.286490                       # Bytes accessed per row activation
system.mem_ctrls0.bytesPerActivate::gmean   163.467746                       # Bytes accessed per row activation
system.mem_ctrls0.bytesPerActivate::stdev   166.063864                       # Bytes accessed per row activation
system.mem_ctrls0.bytesPerActivate::0-127        69653     32.12%     32.12% # Bytes accessed per row activation
system.mem_ctrls0.bytesPerActivate::128-255        54648     25.20%     57.32% # Bytes accessed per row activation
system.mem_ctrls0.bytesPerActivate::256-383        70027     32.29%     89.61% # Bytes accessed per row activation
system.mem_ctrls0.bytesPerActivate::384-511        10157      4.68%     94.29% # Bytes accessed per row activation
system.mem_ctrls0.bytesPerActivate::512-639         5567      2.57%     96.86% # Bytes accessed per row activation
system.mem_ctrls0.bytesPerActivate::640-767         2786      1.28%     98.14% # Bytes accessed per row activation
system.mem_ctrls0.bytesPerActivate::768-895         1485      0.68%     98.83% # Bytes accessed per row activation
system.mem_ctrls0.bytesPerActivate::896-1023          957      0.44%     99.27% # Bytes accessed per row activation
system.mem_ctrls0.bytesPerActivate::1024-1151         1586      0.73%    100.00% # Bytes accessed per row activation
system.mem_ctrls0.bytesPerActivate::total       216866                       # Bytes accessed per row activation
system.mem_ctrls0.rdPerTurnAround::samples        50064                       # Reads before turning the bus around for writes
system.mem_ctrls0.rdPerTurnAround::mean      7.886006                       # Reads before turning the bus around for writes
system.mem_ctrls0.rdPerTurnAround::stdev    18.958657                       # Reads before turning the bus around for writes
system.mem_ctrls0.rdPerTurnAround::0-127        50056     99.98%     99.98% # Reads before turning the bus around for writes
system.mem_ctrls0.rdPerTurnAround::128-255            7      0.01%    100.00% # Reads before turning the bus around for writes
system.mem_ctrls0.rdPerTurnAround::3968-4095            1      0.00%    100.00% # Reads before turning the bus around for writes
system.mem_ctrls0.rdPerTurnAround::total        50064                       # Reads before turning the bus around for writes
system.mem_ctrls0.wrPerTurnAround::samples        50064                       # Writes before turning the bus around for reads
system.mem_ctrls0.wrPerTurnAround::mean      6.685443                       # Writes before turning the bus around for reads
system.mem_ctrls0.wrPerTurnAround::gmean     6.081958                       # Writes before turning the bus around for reads
system.mem_ctrls0.wrPerTurnAround::stdev     3.504051                       # Writes before turning the bus around for reads
system.mem_ctrls0.wrPerTurnAround::4-7          40354     80.60%     80.60% # Writes before turning the bus around for reads
system.mem_ctrls0.wrPerTurnAround::8-11          1999      3.99%     84.60% # Writes before turning the bus around for reads
system.mem_ctrls0.wrPerTurnAround::12-15         5006     10.00%     94.60% # Writes before turning the bus around for reads
system.mem_ctrls0.wrPerTurnAround::16-19         2705      5.40%    100.00% # Writes before turning the bus around for reads
system.mem_ctrls0.wrPerTurnAround::total        50064                       # Writes before turning the bus around for reads
system.mem_ctrls0.totQLat                 64887482789                       # Total ticks spent queuing
system.mem_ctrls0.totMemAccLat            72290264039                       # Total ticks spent from burst creation until serviced by the DRAM
system.mem_ctrls0.totBusLat                1974075000                       # Total ticks spent in databus transfers
system.mem_ctrls0.avgQLat                   164349.08                       # Average queueing delay per DRAM burst
system.mem_ctrls0.avgBusLat                   5000.00                       # Average bus latency per DRAM burst
system.mem_ctrls0.avgMemAccLat              183099.08                       # Average memory access latency per DRAM burst
system.mem_ctrls0.avgRdBW                      164.25                       # Average DRAM read bandwidth in MiByte/s
system.mem_ctrls0.avgWrBW                      139.24                       # Average achieved write bandwidth in MiByte/s
system.mem_ctrls0.avgRdBWSys                   164.26                       # Average system read bandwidth in MiByte/s
system.mem_ctrls0.avgWrBWSys                   139.25                       # Average system write bandwidth in MiByte/s
system.mem_ctrls0.peakBW                     12800.00                       # Theoretical peak bandwidth in MiByte/s
system.mem_ctrls0.busUtil                        2.37                       # Data bus utilization in percentage
system.mem_ctrls0.busUtilRead                    1.28                       # Data bus utilization in percentage for reads
system.mem_ctrls0.busUtilWrite                   1.09                       # Data bus utilization in percentage for writes
system.mem_ctrls0.avgRdQLen                      1.43                       # Average read queue length when enqueuing
system.mem_ctrls0.avgWrQLen                      2.99                       # Average write queue length when enqueuing
system.mem_ctrls0.readRowHits                  294448                       # Number of row buffer hits during reads
system.mem_ctrls0.writeRowHits                 218193                       # Number of row buffer hits during writes
system.mem_ctrls0.readRowHitRate                74.58                       # Row buffer hit rate for reads
system.mem_ctrls0.writeRowHitRate               65.19                       # Row buffer hit rate for writes
system.mem_ctrls0.avgGap                    210869.09                       # Average gap between requests
system.mem_ctrls0.pageHitRate                   70.27                       # Row buffer hit rate, read and write combined
system.mem_ctrls0.memoryStateTime::IDLE   26566145250                       # Time in different power states
system.mem_ctrls0.memoryStateTime::REF     5136820000                       # Time in different power states
system.mem_ctrls0.memoryStateTime::PRE_PDN            0                       # Time in different power states
system.mem_ctrls0.memoryStateTime::ACT   122130569250                       # Time in different power states
system.mem_ctrls0.memoryStateTime::ACT_PDN            0                       # Time in different power states
system.mem_ctrls0.actEnergy::0              824818680                       # Energy for activate commands per rank (pJ)
system.mem_ctrls0.actEnergy::1              814658040                       # Energy for activate commands per rank (pJ)
system.mem_ctrls0.preEnergy::0              450049875                       # Energy for precharge commands per rank (pJ)
system.mem_ctrls0.preEnergy::1              444505875                       # Energy for precharge commands per rank (pJ)
system.mem_ctrls0.readEnergy::0            1546428000                       # Energy for read commands per rank (pJ)
system.mem_ctrls0.readEnergy::1            1533019800                       # Energy for read commands per rank (pJ)
system.mem_ctrls0.writeEnergy::0           1086514560                       # Energy for write commands per rank (pJ)
system.mem_ctrls0.writeEnergy::1           1082309040                       # Energy for write commands per rank (pJ)
system.mem_ctrls0.refreshEnergy::0        10047619920                       # Energy for refresh commands per rank (pJ)
system.mem_ctrls0.refreshEnergy::1        10047619920                       # Energy for refresh commands per rank (pJ)
system.mem_ctrls0.actBackEnergy::0        61128368640                       # Energy for active background per rank (pJ)
system.mem_ctrls0.actBackEnergy::1        60871318020                       # Energy for active background per rank (pJ)
system.mem_ctrls0.preBackEnergy::0        38678544750                       # Energy for precharge background per rank (pJ)
system.mem_ctrls0.preBackEnergy::1        38904027750                       # Energy for precharge background per rank (pJ)
system.mem_ctrls0.totalEnergy::0         113762344425                       # Total energy per rank (pJ)
system.mem_ctrls0.totalEnergy::1         113697458445                       # Total energy per rank (pJ)
system.mem_ctrls0.averagePower::0          739.517500                       # Core power per rank (mW)
system.mem_ctrls0.averagePower::1          739.095706                       # Core power per rank (mW)
system.mem_ctrls1.bytes_read::ruby.dir_cntrl1     24509312                       # Number of bytes read from this memory
system.mem_ctrls1.bytes_read::total          24509312                       # Number of bytes read from this memory
system.mem_ctrls1.bytes_written::ruby.dir_cntrl1     20683264                       # Number of bytes written to this memory
system.mem_ctrls1.bytes_written::total       20683264                       # Number of bytes written to this memory
system.mem_ctrls1.num_reads::ruby.dir_cntrl1       382958                       # Number of read requests responded to by this memory
system.mem_ctrls1.num_reads::total             382958                       # Number of read requests responded to by this memory
system.mem_ctrls1.num_writes::ruby.dir_cntrl1       323176                       # Number of write requests responded to by this memory
system.mem_ctrls1.num_writes::total            323176                       # Number of write requests responded to by this memory
system.mem_ctrls1.bw_read::ruby.dir_cntrl1    159321027                       # Total read bandwidth from this memory (bytes/s)
system.mem_ctrls1.bw_read::total            159321027                       # Total read bandwidth from this memory (bytes/s)
system.mem_ctrls1.bw_write::ruby.dir_cntrl1    134450076                       # Write bandwidth from this memory (bytes/s)
system.mem_ctrls1.bw_write::total           134450076                       # Write bandwidth from this memory (bytes/s)
system.mem_ctrls1.bw_total::ruby.dir_cntrl1    293771102                       # Total bandwidth to/from this memory (bytes/s)
system.mem_ctrls1.bw_total::total           293771102                       # Total bandwidth to/from this memory (bytes/s)
system.mem_ctrls1.readReqs                     382958                       # Number of read requests accepted
system.mem_ctrls1.writeReqs                    323176                       # Number of write requests accepted
system.mem_ctrls1.readBursts                   382958                       # Number of DRAM read bursts, including those serviced by the write queue
system.mem_ctrls1.writeBursts                  323176                       # Number of DRAM write bursts, including those merged in the write queue
system.mem_ctrls1.bytesReadDRAM              24507968                       # Total number of bytes read from DRAM
system.mem_ctrls1.bytesReadWrQ                   1344                       # Total number of bytes read from write queue
system.mem_ctrls1.bytesWritten               20683008                       # Total number of bytes written to DRAM
system.mem_ctrls1.bytesReadSys               24509312                       # Total read bytes from the system interface side
system.mem_ctrls1.bytesWrittenSys            20683264                       # Total written bytes from the system interface side
system.mem_ctrls1.servicedByWrQ                    21                       # Number of DRAM read bursts serviced by the write queue
system.mem_ctrls1.mergedWrBursts                    0                       # Number of DRAM write bursts merged with an existing one
system.mem_ctrls1.neitherReadNorWriteReqs            0                       # Number of requests that are neither read nor write
system.mem_ctrls1.perBankRdBursts::0            23652                       # Per bank write bursts
system.mem_ctrls1.perBankRdBursts::1            24328                       # Per bank write bursts
system.mem_ctrls1.perBankRdBursts::2            23892                       # Per bank write bursts
system.mem_ctrls1.perBankRdBursts::3            24204                       # Per bank write bursts
system.mem_ctrls1.perBankRdBursts::4            23868                       # Per bank write bursts
system.mem_ctrls1.perBankRdBursts::5            24185                       # Per bank write bursts
system.mem_ctrls1.perBankRdBursts::6            24228                       # Per bank write bursts
system.mem_ctrls1.perBankRdBursts::7            24042                       # Per bank write bursts
system.mem_ctrls1.perBankRdBursts::8            23915                       # Per bank write bursts
system.mem_ctrls1.perBankRdBursts::9            24037                       # Per bank write bursts
system.mem_ctrls1.perBankRdBursts::10           23806                       # Per bank write bursts
system.mem_ctrls1.perBankRdBursts::11           24344                       # Per bank write bursts
system.mem_ctrls1.perBankRdBursts::12           23594                       # Per bank write bursts
system.mem_ctrls1.perBankRdBursts::13           23492                       # Per bank write bursts
system.mem_ctrls1.perBankRdBursts::14           23598                       # Per bank write bursts
system.mem_ctrls1.perBankRdBursts::15           23752                       # Per bank write bursts
system.mem_ctrls1.perBankWrBursts::0            20235                       # Per bank write bursts
system.mem_ctrls1.perBankWrBursts::1            20145                       # Per bank write bursts
system.mem_ctrls1.perBankWrBursts::2            20115                       # Per bank write bursts
system.mem_ctrls1.perBankWrBursts::3            20415                       # Per bank write bursts
system.mem_ctrls1.perBankWrBursts::4            20052                       # Per bank write bursts
system.mem_ctrls1.perBankWrBursts::5            20348                       # Per bank write bursts
system.mem_ctrls1.perBankWrBursts::6            20346                       # Per bank write bursts
system.mem_ctrls1.perBankWrBursts::7            20297                       # Per bank write bursts
system.mem_ctrls1.perBankWrBursts::8            20374                       # Per bank write bursts
system.mem_ctrls1.perBankWrBursts::9            20178                       # Per bank write bursts
system.mem_ctrls1.perBankWrBursts::10           20145                       # Per bank write bursts
system.mem_ctrls1.perBankWrBursts::11           20163                       # Per bank write bursts
system.mem_ctrls1.perBankWrBursts::12           19922                       # Per bank write bursts
system.mem_ctrls1.perBankWrBursts::13           20188                       # Per bank write bursts
system.mem_ctrls1.perBankWrBursts::14           20151                       # Per bank write bursts
system.mem_ctrls1.perBankWrBursts::15           20098                       # Per bank write bursts
system.mem_ctrls1.numRdRetry                    93346                       # Number of times read queue was full causing retry
system.mem_ctrls1.numWrRetry                    12581                       # Number of times write queue was full causing retry
system.mem_ctrls1.totGap                 153835261500                       # Total gap between requests
system.mem_ctrls1.readPktSize::0                    0                       # Read request sizes (log2)
system.mem_ctrls1.readPktSize::1                    0                       # Read request sizes (log2)
system.mem_ctrls1.readPktSize::2                    0                       # Read request sizes (log2)
system.mem_ctrls1.readPktSize::3                    0                       # Read request sizes (log2)
system.mem_ctrls1.readPktSize::4                    0                       # Read request sizes (log2)
system.mem_ctrls1.readPktSize::5                    0                       # Read request sizes (log2)
system.mem_ctrls1.readPktSize::6               382958                       # Read request sizes (log2)
system.mem_ctrls1.writePktSize::0                   0                       # Write request sizes (log2)
system.mem_ctrls1.writePktSize::1                   0                       # Write request sizes (log2)
system.mem_ctrls1.writePktSize::2                   0                       # Write request sizes (log2)
system.mem_ctrls1.writePktSize::3                   0                       # Write request sizes (log2)
system.mem_ctrls1.writePktSize::4                   0                       # Write request sizes (log2)
system.mem_ctrls1.writePktSize::5                   0                       # Write request sizes (log2)
system.mem_ctrls1.writePktSize::6              323176                       # Write request sizes (log2)
system.mem_ctrls1.rdQLenPdf::0                 200355                       # What read queue length does an incoming req see
system.mem_ctrls1.rdQLenPdf::1                   1540                       # What read queue length does an incoming req see
system.mem_ctrls1.rdQLenPdf::2                   1135                       # What read queue length does an incoming req see
system.mem_ctrls1.rdQLenPdf::3                   1329                       # What read queue length does an incoming req see
system.mem_ctrls1.rdQLenPdf::4                   1661                       # What read queue length does an incoming req see
system.mem_ctrls1.rdQLenPdf::5                   1914                       # What read queue length does an incoming req see
system.mem_ctrls1.rdQLenPdf::6                   2050                       # What read queue length does an incoming req see
system.mem_ctrls1.rdQLenPdf::7                   2236                       # What read queue length does an incoming req see
system.mem_ctrls1.rdQLenPdf::8                   2263                       # What read queue length does an incoming req see
system.mem_ctrls1.rdQLenPdf::9                   2315                       # What read queue length does an incoming req see
system.mem_ctrls1.rdQLenPdf::10                  2341                       # What read queue length does an incoming req see
system.mem_ctrls1.rdQLenPdf::11                  2380                       # What read queue length does an incoming req see
system.mem_ctrls1.rdQLenPdf::12                  2457                       # What read queue length does an incoming req see
system.mem_ctrls1.rdQLenPdf::13                  2572                       # What read queue length does an incoming req see
system.mem_ctrls1.rdQLenPdf::14                  2584                       # What read queue length does an incoming req see
system.mem_ctrls1.rdQLenPdf::15                  2605                       # What read queue length does an incoming req see
system.mem_ctrls1.rdQLenPdf::16                  2617                       # What read queue length does an incoming req see
system.mem_ctrls1.rdQLenPdf::17                  2772                       # What read queue length does an incoming req see
system.mem_ctrls1.rdQLenPdf::18                  2890                       # What read queue length does an incoming req see
system.mem_ctrls1.rdQLenPdf::19                  2939                       # What read queue length does an incoming req see
system.mem_ctrls1.rdQLenPdf::20                  3043                       # What read queue length does an incoming req see
system.mem_ctrls1.rdQLenPdf::21                  3151                       # What read queue length does an incoming req see
system.mem_ctrls1.rdQLenPdf::22                  3292                       # What read queue length does an incoming req see
system.mem_ctrls1.rdQLenPdf::23                  3238                       # What read queue length does an incoming req see
system.mem_ctrls1.rdQLenPdf::24                  3250                       # What read queue length does an incoming req see
system.mem_ctrls1.rdQLenPdf::25                  3367                       # What read queue length does an incoming req see
system.mem_ctrls1.rdQLenPdf::26                  3443                       # What read queue length does an incoming req see
system.mem_ctrls1.rdQLenPdf::27                  3718                       # What read queue length does an incoming req see
system.mem_ctrls1.rdQLenPdf::28                  3988                       # What read queue length does an incoming req see
system.mem_ctrls1.rdQLenPdf::29                  4448                       # What read queue length does an incoming req see
system.mem_ctrls1.rdQLenPdf::30                  5036                       # What read queue length does an incoming req see
system.mem_ctrls1.rdQLenPdf::31                100008                       # What read queue length does an incoming req see
system.mem_ctrls1.wrQLenPdf::0                  46775                       # What write queue length does an incoming req see
system.mem_ctrls1.wrQLenPdf::1                  50419                       # What write queue length does an incoming req see
system.mem_ctrls1.wrQLenPdf::2                  52052                       # What write queue length does an incoming req see
system.mem_ctrls1.wrQLenPdf::3                  53171                       # What write queue length does an incoming req see
system.mem_ctrls1.wrQLenPdf::4                  53910                       # What write queue length does an incoming req see
system.mem_ctrls1.wrQLenPdf::5                  16937                       # What write queue length does an incoming req see
system.mem_ctrls1.wrQLenPdf::6                  20356                       # What write queue length does an incoming req see
system.mem_ctrls1.wrQLenPdf::7                  29556                       # What write queue length does an incoming req see
system.mem_ctrls1.bytesPerActivate::samples       188735                       # Bytes accessed per row activation
system.mem_ctrls1.bytesPerActivate::mean   239.435314                       # Bytes accessed per row activation
system.mem_ctrls1.bytesPerActivate::gmean   188.158467                       # Bytes accessed per row activation
system.mem_ctrls1.bytesPerActivate::stdev   170.323191                       # Bytes accessed per row activation
system.mem_ctrls1.bytesPerActivate::0-127        42232     22.38%     22.38% # Bytes accessed per row activation
system.mem_ctrls1.bytesPerActivate::128-255        53063     28.12%     50.49% # Bytes accessed per row activation
system.mem_ctrls1.bytesPerActivate::256-383        70134     37.16%     87.65% # Bytes accessed per row activation
system.mem_ctrls1.bytesPerActivate::384-511        10236      5.42%     93.07% # Bytes accessed per row activation
system.mem_ctrls1.bytesPerActivate::512-639         5812      3.08%     96.15% # Bytes accessed per row activation
system.mem_ctrls1.bytesPerActivate::640-767         2750      1.46%     97.61% # Bytes accessed per row activation
system.mem_ctrls1.bytesPerActivate::768-895         1537      0.81%     98.43% # Bytes accessed per row activation
system.mem_ctrls1.bytesPerActivate::896-1023         1071      0.57%     98.99% # Bytes accessed per row activation
system.mem_ctrls1.bytesPerActivate::1024-1151         1900      1.01%    100.00% # Bytes accessed per row activation
system.mem_ctrls1.bytesPerActivate::total       188735                       # Bytes accessed per row activation
system.mem_ctrls1.rdPerTurnAround::samples        48447                       # Reads before turning the bus around for writes
system.mem_ctrls1.rdPerTurnAround::mean      7.903978                       # Reads before turning the bus around for writes
system.mem_ctrls1.rdPerTurnAround::stdev    15.636530                       # Reads before turning the bus around for writes
system.mem_ctrls1.rdPerTurnAround::0-127        48441     99.99%     99.99% # Reads before turning the bus around for writes
system.mem_ctrls1.rdPerTurnAround::128-255            4      0.01%    100.00% # Reads before turning the bus around for writes
system.mem_ctrls1.rdPerTurnAround::1152-1279            1      0.00%    100.00% # Reads before turning the bus around for writes
system.mem_ctrls1.rdPerTurnAround::2816-2943            1      0.00%    100.00% # Reads before turning the bus around for writes
system.mem_ctrls1.rdPerTurnAround::total        48447                       # Reads before turning the bus around for writes
system.mem_ctrls1.wrPerTurnAround::samples        48447                       # Writes before turning the bus around for reads
system.mem_ctrls1.wrPerTurnAround::mean      6.670630                       # Writes before turning the bus around for reads
system.mem_ctrls1.wrPerTurnAround::gmean     6.078540                       # Writes before turning the bus around for reads
system.mem_ctrls1.wrPerTurnAround::stdev     3.460367                       # Writes before turning the bus around for reads
system.mem_ctrls1.wrPerTurnAround::4-7          38577     79.63%     79.63% # Writes before turning the bus around for reads
system.mem_ctrls1.wrPerTurnAround::8-11          2830      5.84%     85.47% # Writes before turning the bus around for reads
system.mem_ctrls1.wrPerTurnAround::12-15         4395      9.07%     94.54% # Writes before turning the bus around for reads
system.mem_ctrls1.wrPerTurnAround::16-19         2645      5.46%    100.00% # Writes before turning the bus around for reads
system.mem_ctrls1.wrPerTurnAround::total        48447                       # Writes before turning the bus around for reads
system.mem_ctrls1.totQLat                 58618830340                       # Total ticks spent queuing
system.mem_ctrls1.totMemAccLat            65798899090                       # Total ticks spent from burst creation until serviced by the DRAM
system.mem_ctrls1.totBusLat                1914685000                       # Total ticks spent in databus transfers
system.mem_ctrls1.avgQLat                   153076.96                       # Average queueing delay per DRAM burst
system.mem_ctrls1.avgBusLat                   5000.00                       # Average bus latency per DRAM burst
system.mem_ctrls1.avgMemAccLat              171826.96                       # Average memory access latency per DRAM burst
system.mem_ctrls1.avgRdBW                      159.31                       # Average DRAM read bandwidth in MiByte/s
system.mem_ctrls1.avgWrBW                      134.45                       # Average achieved write bandwidth in MiByte/s
system.mem_ctrls1.avgRdBWSys                   159.32                       # Average system read bandwidth in MiByte/s
system.mem_ctrls1.avgWrBWSys                   134.45                       # Average system write bandwidth in MiByte/s
system.mem_ctrls1.peakBW                     12800.00                       # Theoretical peak bandwidth in MiByte/s
system.mem_ctrls1.busUtil                        2.30                       # Data bus utilization in percentage
system.mem_ctrls1.busUtilRead                    1.24                       # Data bus utilization in percentage for reads
system.mem_ctrls1.busUtilWrite                   1.05                       # Data bus utilization in percentage for writes
system.mem_ctrls1.avgRdQLen                      1.39                       # Average read queue length when enqueuing
system.mem_ctrls1.avgWrQLen                      2.99                       # Average write queue length when enqueuing
system.mem_ctrls1.readRowHits                  290955                       # Number of row buffer hits during reads
system.mem_ctrls1.writeRowHits                 226411                       # Number of row buffer hits during writes
system.mem_ctrls1.readRowHitRate                75.98                       # Row buffer hit rate for reads
system.mem_ctrls1.writeRowHitRate               70.06                       # Row buffer hit rate for writes
system.mem_ctrls1.avgGap                    217855.62                       # Average gap between requests
system.mem_ctrls1.pageHitRate                   73.27                       # Row buffer hit rate, read and write combined
system.mem_ctrls1.memoryStateTime::IDLE   27042083500                       # Time in different power states
system.mem_ctrls1.memoryStateTime::REF     5136820000                       # Time in different power states
system.mem_ctrls1.memoryStateTime::PRE_PDN            0                       # Time in different power states
system.mem_ctrls1.memoryStateTime::ACT   121654504500                       # Time in different power states
system.mem_ctrls1.memoryStateTime::ACT_PDN            0                       # Time in different power states
system.mem_ctrls1.actEnergy::0              718290720                       # Energy for activate commands per rank (pJ)
system.mem_ctrls1.actEnergy::1              708530760                       # Energy for activate commands per rank (pJ)
system.mem_ctrls1.preEnergy::0              391924500                       # Energy for precharge commands per rank (pJ)
system.mem_ctrls1.preEnergy::1              386599125                       # Energy for precharge commands per rank (pJ)
system.mem_ctrls1.readEnergy::0            1500665400                       # Energy for read commands per rank (pJ)
system.mem_ctrls1.readEnergy::1            1486134000                       # Energy for read commands per rank (pJ)
system.mem_ctrls1.writeEnergy::0           1049455440                       # Energy for write commands per rank (pJ)
system.mem_ctrls1.writeEnergy::1           1044660240                       # Energy for write commands per rank (pJ)
system.mem_ctrls1.refreshEnergy::0        10047619920                       # Energy for refresh commands per rank (pJ)
system.mem_ctrls1.refreshEnergy::1        10047619920                       # Energy for refresh commands per rank (pJ)
system.mem_ctrls1.actBackEnergy::0        60096623040                       # Energy for active background per rank (pJ)
system.mem_ctrls1.actBackEnergy::1        59619394530                       # Energy for active background per rank (pJ)
system.mem_ctrls1.preBackEnergy::0        39583584750                       # Energy for precharge background per rank (pJ)
system.mem_ctrls1.preBackEnergy::1        40002206250                       # Energy for precharge background per rank (pJ)
system.mem_ctrls1.totalEnergy::0         113388163770                       # Total energy per rank (pJ)
system.mem_ctrls1.totalEnergy::1         113295144825                       # Total energy per rank (pJ)
system.mem_ctrls1.averagePower::0          737.085121                       # Core power per rank (mW)
system.mem_ctrls1.averagePower::1          736.480447                       # Core power per rank (mW)
system.mem_ctrls2.bytes_read::ruby.dir_cntrl2     24509504                       # Number of bytes read from this memory
system.mem_ctrls2.bytes_read::total          24509504                       # Number of bytes read from this memory
system.mem_ctrls2.bytes_written::ruby.dir_cntrl2     20684736                       # Number of bytes written to this memory
system.mem_ctrls2.bytes_written::total       20684736                       # Number of bytes written to this memory
system.mem_ctrls2.num_reads::ruby.dir_cntrl2       382961                       # Number of read requests responded to by this memory
system.mem_ctrls2.num_reads::total             382961                       # Number of read requests responded to by this memory
system.mem_ctrls2.num_writes::ruby.dir_cntrl2       323199                       # Number of write requests responded to by this memory
system.mem_ctrls2.num_writes::total            323199                       # Number of write requests responded to by this memory
system.mem_ctrls2.bw_read::ruby.dir_cntrl2    159322275                       # Total read bandwidth from this memory (bytes/s)
system.mem_ctrls2.bw_read::total            159322275                       # Total read bandwidth from this memory (bytes/s)
system.mem_ctrls2.bw_write::ruby.dir_cntrl2    134459644                       # Write bandwidth from this memory (bytes/s)
system.mem_ctrls2.bw_write::total           134459644                       # Write bandwidth from this memory (bytes/s)
system.mem_ctrls2.bw_total::ruby.dir_cntrl2    293781919                       # Total bandwidth to/from this memory (bytes/s)
system.mem_ctrls2.bw_total::total           293781919                       # Total bandwidth to/from this memory (bytes/s)
system.mem_ctrls2.readReqs                     382961                       # Number of read requests accepted
system.mem_ctrls2.writeReqs                    323199                       # Number of write requests accepted
system.mem_ctrls2.readBursts                   382961                       # Number of DRAM read bursts, including those serviced by the write queue
system.mem_ctrls2.writeBursts                  323199                       # Number of DRAM write bursts, including those merged in the write queue
system.mem_ctrls2.bytesReadDRAM              24508352                       # Total number of bytes read from DRAM
system.mem_ctrls2.bytesReadWrQ                   1152                       # Total number of bytes read from write queue
system.mem_ctrls2.bytesWritten               20684544                       # Total number of bytes written to DRAM
system.mem_ctrls2.bytesReadSys               24509504                       # Total read bytes from the system interface side
system.mem_ctrls2.bytesWrittenSys            20684736                       # Total written bytes from the system interface side
system.mem_ctrls2.servicedByWrQ                    18                       # Number of DRAM read bursts serviced by the write queue
system.mem_ctrls2.mergedWrBursts                    0                       # Number of DRAM write bursts merged with an existing one
system.mem_ctrls2.neitherReadNorWriteReqs            0                       # Number of requests that are neither read nor write
system.mem_ctrls2.perBankRdBursts::0            23641                       # Per bank write bursts
system.mem_ctrls2.perBankRdBursts::1            24299                       # Per bank write bursts
system.mem_ctrls2.perBankRdBursts::2            23934                       # Per bank write bursts
system.mem_ctrls2.perBankRdBursts::3            24276                       # Per bank write bursts
system.mem_ctrls2.perBankRdBursts::4            23867                       # Per bank write bursts
system.mem_ctrls2.perBankRdBursts::5            24157                       # Per bank write bursts
system.mem_ctrls2.perBankRdBursts::6            24233                       # Per bank write bursts
system.mem_ctrls2.perBankRdBursts::7            24028                       # Per bank write bursts
system.mem_ctrls2.perBankRdBursts::8            23897                       # Per bank write bursts
system.mem_ctrls2.perBankRdBursts::9            24046                       # Per bank write bursts
system.mem_ctrls2.perBankRdBursts::10           23815                       # Per bank write bursts
system.mem_ctrls2.perBankRdBursts::11           24323                       # Per bank write bursts
system.mem_ctrls2.perBankRdBursts::12           23625                       # Per bank write bursts
system.mem_ctrls2.perBankRdBursts::13           23435                       # Per bank write bursts
system.mem_ctrls2.perBankRdBursts::14           23589                       # Per bank write bursts
system.mem_ctrls2.perBankRdBursts::15           23778                       # Per bank write bursts
system.mem_ctrls2.perBankWrBursts::0            20228                       # Per bank write bursts
system.mem_ctrls2.perBankWrBursts::1            20143                       # Per bank write bursts
system.mem_ctrls2.perBankWrBursts::2            20115                       # Per bank write bursts
system.mem_ctrls2.perBankWrBursts::3            20419                       # Per bank write bursts
system.mem_ctrls2.perBankWrBursts::4            20054                       # Per bank write bursts
system.mem_ctrls2.perBankWrBursts::5            20333                       # Per bank write bursts
system.mem_ctrls2.perBankWrBursts::6            20354                       # Per bank write bursts
system.mem_ctrls2.perBankWrBursts::7            20304                       # Per bank write bursts
system.mem_ctrls2.perBankWrBursts::8            20376                       # Per bank write bursts
system.mem_ctrls2.perBankWrBursts::9            20184                       # Per bank write bursts
system.mem_ctrls2.perBankWrBursts::10           20141                       # Per bank write bursts
system.mem_ctrls2.perBankWrBursts::11           20160                       # Per bank write bursts
system.mem_ctrls2.perBankWrBursts::12           19929                       # Per bank write bursts
system.mem_ctrls2.perBankWrBursts::13           20183                       # Per bank write bursts
system.mem_ctrls2.perBankWrBursts::14           20158                       # Per bank write bursts
system.mem_ctrls2.perBankWrBursts::15           20115                       # Per bank write bursts
system.mem_ctrls2.numRdRetry                    90726                       # Number of times read queue was full causing retry
system.mem_ctrls2.numWrRetry                    12974                       # Number of times write queue was full causing retry
system.mem_ctrls2.totGap                 153835189500                       # Total gap between requests
system.mem_ctrls2.readPktSize::0                    0                       # Read request sizes (log2)
system.mem_ctrls2.readPktSize::1                    0                       # Read request sizes (log2)
system.mem_ctrls2.readPktSize::2                    0                       # Read request sizes (log2)
system.mem_ctrls2.readPktSize::3                    0                       # Read request sizes (log2)
system.mem_ctrls2.readPktSize::4                    0                       # Read request sizes (log2)
system.mem_ctrls2.readPktSize::5                    0                       # Read request sizes (log2)
system.mem_ctrls2.readPktSize::6               382961                       # Read request sizes (log2)
system.mem_ctrls2.writePktSize::0                   0                       # Write request sizes (log2)
system.mem_ctrls2.writePktSize::1                   0                       # Write request sizes (log2)
system.mem_ctrls2.writePktSize::2                   0                       # Write request sizes (log2)
system.mem_ctrls2.writePktSize::3                   0                       # Write request sizes (log2)
system.mem_ctrls2.writePktSize::4                   0                       # Write request sizes (log2)
system.mem_ctrls2.writePktSize::5                   0                       # Write request sizes (log2)
system.mem_ctrls2.writePktSize::6              323199                       # Write request sizes (log2)
system.mem_ctrls2.rdQLenPdf::0                 200602                       # What read queue length does an incoming req see
system.mem_ctrls2.rdQLenPdf::1                   1276                       # What read queue length does an incoming req see
system.mem_ctrls2.rdQLenPdf::2                   1111                       # What read queue length does an incoming req see
system.mem_ctrls2.rdQLenPdf::3                   1392                       # What read queue length does an incoming req see
system.mem_ctrls2.rdQLenPdf::4                   1654                       # What read queue length does an incoming req see
system.mem_ctrls2.rdQLenPdf::5                   1914                       # What read queue length does an incoming req see
system.mem_ctrls2.rdQLenPdf::6                   2138                       # What read queue length does an incoming req see
system.mem_ctrls2.rdQLenPdf::7                   2257                       # What read queue length does an incoming req see
system.mem_ctrls2.rdQLenPdf::8                   2336                       # What read queue length does an incoming req see
system.mem_ctrls2.rdQLenPdf::9                   2390                       # What read queue length does an incoming req see
system.mem_ctrls2.rdQLenPdf::10                  2485                       # What read queue length does an incoming req see
system.mem_ctrls2.rdQLenPdf::11                  2587                       # What read queue length does an incoming req see
system.mem_ctrls2.rdQLenPdf::12                  2614                       # What read queue length does an incoming req see
system.mem_ctrls2.rdQLenPdf::13                  2748                       # What read queue length does an incoming req see
system.mem_ctrls2.rdQLenPdf::14                  2826                       # What read queue length does an incoming req see
system.mem_ctrls2.rdQLenPdf::15                  2942                       # What read queue length does an incoming req see
system.mem_ctrls2.rdQLenPdf::16                  2926                       # What read queue length does an incoming req see
system.mem_ctrls2.rdQLenPdf::17                  2961                       # What read queue length does an incoming req see
system.mem_ctrls2.rdQLenPdf::18                  3032                       # What read queue length does an incoming req see
system.mem_ctrls2.rdQLenPdf::19                  3140                       # What read queue length does an incoming req see
system.mem_ctrls2.rdQLenPdf::20                  3209                       # What read queue length does an incoming req see
system.mem_ctrls2.rdQLenPdf::21                  3221                       # What read queue length does an incoming req see
system.mem_ctrls2.rdQLenPdf::22                  3264                       # What read queue length does an incoming req see
system.mem_ctrls2.rdQLenPdf::23                  3224                       # What read queue length does an incoming req see
system.mem_ctrls2.rdQLenPdf::24                  3324                       # What read queue length does an incoming req see
system.mem_ctrls2.rdQLenPdf::25                  3404                       # What read queue length does an incoming req see
system.mem_ctrls2.rdQLenPdf::26                  3626                       # What read queue length does an incoming req see
system.mem_ctrls2.rdQLenPdf::27                  3838                       # What read queue length does an incoming req see
system.mem_ctrls2.rdQLenPdf::28                  4014                       # What read queue length does an incoming req see
system.mem_ctrls2.rdQLenPdf::29                  4387                       # What read queue length does an incoming req see
system.mem_ctrls2.rdQLenPdf::30                  4777                       # What read queue length does an incoming req see
system.mem_ctrls2.rdQLenPdf::31                 97324                       # What read queue length does an incoming req see
system.mem_ctrls2.wrQLenPdf::0                  46724                       # What write queue length does an incoming req see
system.mem_ctrls2.wrQLenPdf::1                  50386                       # What write queue length does an incoming req see
system.mem_ctrls2.wrQLenPdf::2                  52296                       # What write queue length does an incoming req see
system.mem_ctrls2.wrQLenPdf::3                  53094                       # What write queue length does an incoming req see
system.mem_ctrls2.wrQLenPdf::4                  53835                       # What write queue length does an incoming req see
system.mem_ctrls2.wrQLenPdf::5                  16798                       # What write queue length does an incoming req see
system.mem_ctrls2.wrQLenPdf::6                  20251                       # What write queue length does an incoming req see
system.mem_ctrls2.wrQLenPdf::7                  29815                       # What write queue length does an incoming req see
system.mem_ctrls2.bytesPerActivate::samples       188156                       # Bytes accessed per row activation
system.mem_ctrls2.bytesPerActivate::mean   240.185038                       # Bytes accessed per row activation
system.mem_ctrls2.bytesPerActivate::gmean   189.108646                       # Bytes accessed per row activation
system.mem_ctrls2.bytesPerActivate::stdev   170.207783                       # Bytes accessed per row activation
system.mem_ctrls2.bytesPerActivate::0-127        41408     22.01%     22.01% # Bytes accessed per row activation
system.mem_ctrls2.bytesPerActivate::128-255        52751     28.04%     50.04% # Bytes accessed per row activation
system.mem_ctrls2.bytesPerActivate::256-383        70684     37.57%     87.61% # Bytes accessed per row activation
system.mem_ctrls2.bytesPerActivate::384-511        10129      5.38%     92.99% # Bytes accessed per row activation
system.mem_ctrls2.bytesPerActivate::512-639         5896      3.13%     96.13% # Bytes accessed per row activation
system.mem_ctrls2.bytesPerActivate::640-767         2796      1.49%     97.61% # Bytes accessed per row activation
system.mem_ctrls2.bytesPerActivate::768-895         1544      0.82%     98.43% # Bytes accessed per row activation
system.mem_ctrls2.bytesPerActivate::896-1023          997      0.53%     98.96% # Bytes accessed per row activation
system.mem_ctrls2.bytesPerActivate::1024-1151         1951      1.04%    100.00% # Bytes accessed per row activation
system.mem_ctrls2.bytesPerActivate::total       188156                       # Bytes accessed per row activation
system.mem_ctrls2.rdPerTurnAround::samples        48476                       # Reads before turning the bus around for writes
system.mem_ctrls2.rdPerTurnAround::mean      7.899538                       # Reads before turning the bus around for writes
system.mem_ctrls2.rdPerTurnAround::stdev    15.677752                       # Reads before turning the bus around for writes
system.mem_ctrls2.rdPerTurnAround::0-127        48470     99.99%     99.99% # Reads before turning the bus around for writes
system.mem_ctrls2.rdPerTurnAround::128-255            4      0.01%    100.00% # Reads before turning the bus around for writes
system.mem_ctrls2.rdPerTurnAround::1152-1279            1      0.00%    100.00% # Reads before turning the bus around for writes
system.mem_ctrls2.rdPerTurnAround::2816-2943            1      0.00%    100.00% # Reads before turning the bus around for writes
system.mem_ctrls2.rdPerTurnAround::total        48476                       # Reads before turning the bus around for writes
system.mem_ctrls2.wrPerTurnAround::samples        48476                       # Writes before turning the bus around for reads
system.mem_ctrls2.wrPerTurnAround::mean      6.667134                       # Writes before turning the bus around for reads
system.mem_ctrls2.wrPerTurnAround::gmean     6.076560                       # Writes before turning the bus around for reads
system.mem_ctrls2.wrPerTurnAround::stdev     3.458329                       # Writes before turning the bus around for reads
system.mem_ctrls2.wrPerTurnAround::4-7          38566     79.56%     79.56% # Writes before turning the bus around for reads
system.mem_ctrls2.wrPerTurnAround::8-11          2972      6.13%     85.69% # Writes before turning the bus around for reads
system.mem_ctrls2.wrPerTurnAround::12-15         4160      8.58%     94.27% # Writes before turning the bus around for reads
system.mem_ctrls2.wrPerTurnAround::16-19         2778      5.73%    100.00% # Writes before turning the bus around for reads
system.mem_ctrls2.wrPerTurnAround::total        48476                       # Writes before turning the bus around for reads
system.mem_ctrls2.totQLat                 58145903009                       # Total ticks spent queuing
system.mem_ctrls2.totMemAccLat            65326084259                       # Total ticks spent from burst creation until serviced by the DRAM
system.mem_ctrls2.totBusLat                1914715000                       # Total ticks spent in databus transfers
system.mem_ctrls2.avgQLat                   151839.58                       # Average queueing delay per DRAM burst
system.mem_ctrls2.avgBusLat                   5000.00                       # Average bus latency per DRAM burst
system.mem_ctrls2.avgMemAccLat              170589.58                       # Average memory access latency per DRAM burst
system.mem_ctrls2.avgRdBW                      159.31                       # Average DRAM read bandwidth in MiByte/s
system.mem_ctrls2.avgWrBW                      134.46                       # Average achieved write bandwidth in MiByte/s
system.mem_ctrls2.avgRdBWSys                   159.32                       # Average system read bandwidth in MiByte/s
system.mem_ctrls2.avgWrBWSys                   134.46                       # Average system write bandwidth in MiByte/s
system.mem_ctrls2.peakBW                     12800.00                       # Theoretical peak bandwidth in MiByte/s
system.mem_ctrls2.busUtil                        2.30                       # Data bus utilization in percentage
system.mem_ctrls2.busUtilRead                    1.24                       # Data bus utilization in percentage for reads
system.mem_ctrls2.busUtilWrite                   1.05                       # Data bus utilization in percentage for writes
system.mem_ctrls2.avgRdQLen                      1.38                       # Average read queue length when enqueuing
system.mem_ctrls2.avgWrQLen                      3.01                       # Average write queue length when enqueuing
system.mem_ctrls2.readRowHits                  291002                       # Number of row buffer hits during reads
system.mem_ctrls2.writeRowHits                 226974                       # Number of row buffer hits during writes
system.mem_ctrls2.readRowHitRate                75.99                       # Row buffer hit rate for reads
system.mem_ctrls2.writeRowHitRate               70.23                       # Row buffer hit rate for writes
system.mem_ctrls2.avgGap                    217847.50                       # Average gap between requests
system.mem_ctrls2.pageHitRate                   73.35                       # Row buffer hit rate, read and write combined
system.mem_ctrls2.memoryStateTime::IDLE   27138611750                       # Time in different power states
system.mem_ctrls2.memoryStateTime::REF     5136820000                       # Time in different power states
system.mem_ctrls2.memoryStateTime::PRE_PDN            0                       # Time in different power states
system.mem_ctrls2.memoryStateTime::ACT   121557783250                       # Time in different power states
system.mem_ctrls2.memoryStateTime::ACT_PDN            0                       # Time in different power states
system.mem_ctrls2.actEnergy::0              717156720                       # Energy for activate commands per rank (pJ)
system.mem_ctrls2.actEnergy::1              705272400                       # Energy for activate commands per rank (pJ)
system.mem_ctrls2.preEnergy::0              391305750                       # Energy for precharge commands per rank (pJ)
system.mem_ctrls2.preEnergy::1              384821250                       # Energy for precharge commands per rank (pJ)
system.mem_ctrls2.readEnergy::0            1500946200                       # Energy for read commands per rank (pJ)
system.mem_ctrls2.readEnergy::1            1485931200                       # Energy for read commands per rank (pJ)
system.mem_ctrls2.writeEnergy::0           1049429520                       # Energy for write commands per rank (pJ)
system.mem_ctrls2.writeEnergy::1           1044848160                       # Energy for write commands per rank (pJ)
system.mem_ctrls2.refreshEnergy::0        10047619920                       # Energy for refresh commands per rank (pJ)
system.mem_ctrls2.refreshEnergy::1        10047619920                       # Energy for refresh commands per rank (pJ)
system.mem_ctrls2.actBackEnergy::0        59673669075                       # Energy for active background per rank (pJ)
system.mem_ctrls2.actBackEnergy::1        59211216675                       # Energy for active background per rank (pJ)
system.mem_ctrls2.preBackEnergy::0        39954597000                       # Energy for precharge background per rank (pJ)
system.mem_ctrls2.preBackEnergy::1        40360257000                       # Energy for precharge background per rank (pJ)
system.mem_ctrls2.totalEnergy::0         113334724185                       # Total energy per rank (pJ)
system.mem_ctrls2.totalEnergy::1         113239966605                       # Total energy per rank (pJ)
system.mem_ctrls2.averagePower::0          736.737735                       # Core power per rank (mW)
system.mem_ctrls2.averagePower::1          736.121758                       # Core power per rank (mW)
system.mem_ctrls3.bytes_read::ruby.dir_cntrl3     24489152                       # Number of bytes read from this memory
system.mem_ctrls3.bytes_read::total          24489152                       # Number of bytes read from this memory
system.mem_ctrls3.bytes_written::ruby.dir_cntrl3     20682496                       # Number of bytes written to this memory
system.mem_ctrls3.bytes_written::total       20682496                       # Number of bytes written to this memory
system.mem_ctrls3.num_reads::ruby.dir_cntrl3       382643                       # Number of read requests responded to by this memory
system.mem_ctrls3.num_reads::total             382643                       # Number of read requests responded to by this memory
system.mem_ctrls3.num_writes::ruby.dir_cntrl3       323164                       # Number of write requests responded to by this memory
system.mem_ctrls3.num_writes::total            323164                       # Number of write requests responded to by this memory
system.mem_ctrls3.bw_read::ruby.dir_cntrl3    159189978                       # Total read bandwidth from this memory (bytes/s)
system.mem_ctrls3.bw_read::total            159189978                       # Total read bandwidth from this memory (bytes/s)
system.mem_ctrls3.bw_write::ruby.dir_cntrl3    134445083                       # Write bandwidth from this memory (bytes/s)
system.mem_ctrls3.bw_write::total           134445083                       # Write bandwidth from this memory (bytes/s)
system.mem_ctrls3.bw_total::ruby.dir_cntrl3    293635061                       # Total bandwidth to/from this memory (bytes/s)
system.mem_ctrls3.bw_total::total           293635061                       # Total bandwidth to/from this memory (bytes/s)
system.mem_ctrls3.readReqs                     382643                       # Number of read requests accepted
system.mem_ctrls3.writeReqs                    323164                       # Number of write requests accepted
system.mem_ctrls3.readBursts                   382643                       # Number of DRAM read bursts, including those serviced by the write queue
system.mem_ctrls3.writeBursts                  323164                       # Number of DRAM write bursts, including those merged in the write queue
system.mem_ctrls3.bytesReadDRAM              24488512                       # Total number of bytes read from DRAM
system.mem_ctrls3.bytesReadWrQ                    640                       # Total number of bytes read from write queue
system.mem_ctrls3.bytesWritten               20682368                       # Total number of bytes written to DRAM
system.mem_ctrls3.bytesReadSys               24489152                       # Total read bytes from the system interface side
system.mem_ctrls3.bytesWrittenSys            20682496                       # Total written bytes from the system interface side
system.mem_ctrls3.servicedByWrQ                    10                       # Number of DRAM read bursts serviced by the write queue
system.mem_ctrls3.mergedWrBursts                    0                       # Number of DRAM write bursts merged with an existing one
system.mem_ctrls3.neitherReadNorWriteReqs            0                       # Number of requests that are neither read nor write
system.mem_ctrls3.perBankRdBursts::0            23629                       # Per bank write bursts
system.mem_ctrls3.perBankRdBursts::1            24297                       # Per bank write bursts
system.mem_ctrls3.perBankRdBursts::2            23812                       # Per bank write bursts
system.mem_ctrls3.perBankRdBursts::3            24239                       # Per bank write bursts
system.mem_ctrls3.perBankRdBursts::4            23815                       # Per bank write bursts
system.mem_ctrls3.perBankRdBursts::5            24166                       # Per bank write bursts
system.mem_ctrls3.perBankRdBursts::6            24222                       # Per bank write bursts
system.mem_ctrls3.perBankRdBursts::7            24032                       # Per bank write bursts
system.mem_ctrls3.perBankRdBursts::8            23882                       # Per bank write bursts
system.mem_ctrls3.perBankRdBursts::9            24025                       # Per bank write bursts
system.mem_ctrls3.perBankRdBursts::10           23880                       # Per bank write bursts
system.mem_ctrls3.perBankRdBursts::11           24274                       # Per bank write bursts
system.mem_ctrls3.perBankRdBursts::12           23558                       # Per bank write bursts
system.mem_ctrls3.perBankRdBursts::13           23445                       # Per bank write bursts
system.mem_ctrls3.perBankRdBursts::14           23607                       # Per bank write bursts
system.mem_ctrls3.perBankRdBursts::15           23750                       # Per bank write bursts
system.mem_ctrls3.perBankWrBursts::0            20230                       # Per bank write bursts
system.mem_ctrls3.perBankWrBursts::1            20139                       # Per bank write bursts
system.mem_ctrls3.perBankWrBursts::2            20120                       # Per bank write bursts
system.mem_ctrls3.perBankWrBursts::3            20408                       # Per bank write bursts
system.mem_ctrls3.perBankWrBursts::4            20048                       # Per bank write bursts
system.mem_ctrls3.perBankWrBursts::5            20336                       # Per bank write bursts
system.mem_ctrls3.perBankWrBursts::6            20357                       # Per bank write bursts
system.mem_ctrls3.perBankWrBursts::7            20293                       # Per bank write bursts
system.mem_ctrls3.perBankWrBursts::8            20370                       # Per bank write bursts
system.mem_ctrls3.perBankWrBursts::9            20183                       # Per bank write bursts
system.mem_ctrls3.perBankWrBursts::10           20140                       # Per bank write bursts
system.mem_ctrls3.perBankWrBursts::11           20170                       # Per bank write bursts
system.mem_ctrls3.perBankWrBursts::12           19928                       # Per bank write bursts
system.mem_ctrls3.perBankWrBursts::13           20188                       # Per bank write bursts
system.mem_ctrls3.perBankWrBursts::14           20158                       # Per bank write bursts
system.mem_ctrls3.perBankWrBursts::15           20094                       # Per bank write bursts
system.mem_ctrls3.numRdRetry                    87126                       # Number of times read queue was full causing retry
system.mem_ctrls3.numWrRetry                    12295                       # Number of times write queue was full causing retry
system.mem_ctrls3.totGap                 153834893000                       # Total gap between requests
system.mem_ctrls3.readPktSize::0                    0                       # Read request sizes (log2)
system.mem_ctrls3.readPktSize::1                    0                       # Read request sizes (log2)
system.mem_ctrls3.readPktSize::2                    0                       # Read request sizes (log2)
system.mem_ctrls3.readPktSize::3                    0                       # Read request sizes (log2)
system.mem_ctrls3.readPktSize::4                    0                       # Read request sizes (log2)
system.mem_ctrls3.readPktSize::5                    0                       # Read request sizes (log2)
system.mem_ctrls3.readPktSize::6               382643                       # Read request sizes (log2)
system.mem_ctrls3.writePktSize::0                   0                       # Write request sizes (log2)
system.mem_ctrls3.writePktSize::1                   0                       # Write request sizes (log2)
system.mem_ctrls3.writePktSize::2                   0                       # Write request sizes (log2)
system.mem_ctrls3.writePktSize::3                   0                       # Write request sizes (log2)
system.mem_ctrls3.writePktSize::4                   0                       # Write request sizes (log2)
system.mem_ctrls3.writePktSize::5                   0                       # Write request sizes (log2)
system.mem_ctrls3.writePktSize::6              323164                       # Write request sizes (log2)
system.mem_ctrls3.rdQLenPdf::0                 200282                       # What read queue length does an incoming req see
system.mem_ctrls3.rdQLenPdf::1                   1430                       # What read queue length does an incoming req see
system.mem_ctrls3.rdQLenPdf::2                   1181                       # What read queue length does an incoming req see
system.mem_ctrls3.rdQLenPdf::3                   1439                       # What read queue length does an incoming req see
system.mem_ctrls3.rdQLenPdf::4                   1727                       # What read queue length does an incoming req see
system.mem_ctrls3.rdQLenPdf::5                   1893                       # What read queue length does an incoming req see
system.mem_ctrls3.rdQLenPdf::6                   2069                       # What read queue length does an incoming req see
system.mem_ctrls3.rdQLenPdf::7                   2260                       # What read queue length does an incoming req see
system.mem_ctrls3.rdQLenPdf::8                   2413                       # What read queue length does an incoming req see
system.mem_ctrls3.rdQLenPdf::9                   2602                       # What read queue length does an incoming req see
system.mem_ctrls3.rdQLenPdf::10                  2562                       # What read queue length does an incoming req see
system.mem_ctrls3.rdQLenPdf::11                  2664                       # What read queue length does an incoming req see
system.mem_ctrls3.rdQLenPdf::12                  2694                       # What read queue length does an incoming req see
system.mem_ctrls3.rdQLenPdf::13                  2764                       # What read queue length does an incoming req see
system.mem_ctrls3.rdQLenPdf::14                  2855                       # What read queue length does an incoming req see
system.mem_ctrls3.rdQLenPdf::15                  2926                       # What read queue length does an incoming req see
system.mem_ctrls3.rdQLenPdf::16                  2955                       # What read queue length does an incoming req see
system.mem_ctrls3.rdQLenPdf::17                  3141                       # What read queue length does an incoming req see
system.mem_ctrls3.rdQLenPdf::18                  3226                       # What read queue length does an incoming req see
system.mem_ctrls3.rdQLenPdf::19                  3254                       # What read queue length does an incoming req see
system.mem_ctrls3.rdQLenPdf::20                  3351                       # What read queue length does an incoming req see
system.mem_ctrls3.rdQLenPdf::21                  3380                       # What read queue length does an incoming req see
system.mem_ctrls3.rdQLenPdf::22                  3419                       # What read queue length does an incoming req see
system.mem_ctrls3.rdQLenPdf::23                  3551                       # What read queue length does an incoming req see
system.mem_ctrls3.rdQLenPdf::24                  3537                       # What read queue length does an incoming req see
[...]
system.ruby.L2Cache_Controller.S_I.Ack_all::total           14                      
system.ruby.L2Cache_Controller.ISS.L1_GETS |           1    100.00%    100.00% |           0      0.00%    100.00% |           0      0.00%    100.00% |           0      0.00%    100.00% |           0      0.00%    100.00% |           0      0.00%    100.00% |           0      0.00%    100.00% |           0      0.00%    100.00% |           0      0.00%    100.00% |           0      0.00%    100.00% |           0      0.00%    100.00% |           0      0.00%    100.00% |           0      0.00%    100.00% |           0      0.00%    100.00% |           0      0.00%    100.00% |           0      0.00%    100.00% |           0      0.00%    100.00% |           0      0.00%    100.00% |           0      0.00%    100.00% |           0      0.00%    100.00% |           0      0.00%    100.00% |           0      0.00%    100.00% |           0      0.00%    100.00% |           0      0.00%    100.00% |           0      0.00%    100.00% |           0      0.00%    100.00% |           0      0.00%    100.00% |           0      0.00%    100.00% |           0      0.00%    100.00% |           0      0.00%    100.00% |           0      0.00%    100.00% |           0      0.00%    100.00%
system.ruby.L2Cache_Controller.ISS.L1_GETS::total            1                      
system.ruby.L2Cache_Controller.ISS.Mem_Data |       18677      7.92%      7.92% |        7081      3.00%     10.93% |        7083      3.01%     13.93% |        7033      2.98%     16.92% |        7003      2.97%     19.89% |        6984      2.96%     22.85% |        6997      2.97%     25.82% |        6991      2.97%     28.79% |        7030      2.98%     31.77% |        7033      2.98%     34.75% |        7066      3.00%     37.75% |        6988      2.96%     40.71% |        6994      2.97%     43.68% |        6993      2.97%     46.65% |        6996      2.97%     49.62% |        6960      2.95%     52.57% |        6997      2.97%     55.54% |        6973      2.96%     58.50% |        7005      2.97%     61.47% |        6983      2.96%     64.43% |        6980      2.96%     67.39% |        6966      2.96%     70.35% |        6990      2.97%     73.31% |        6983      2.96%     76.28% |        7004      2.97%     79.25% |        7005      2.97%     82.22% |        6985      2.96%     85.18% |        6960      2.95%     88.14% |        7004      2.97%     91.11% |        6986      2.96%     94.07% |        6958      2.95%     97.02% |        7016      2.98%    100.00%
system.ruby.L2Cache_Controller.ISS.Mem_Data::total       235704                      
system.ruby.L2Cache_Controller.IS.Mem_Data |         543      3.27%      3.27% |         471      2.83%      6.10% |         465      2.80%      8.90% |         465      2.80%     11.70% |         511      3.08%     14.77% |         466      2.80%     17.58% |         504      3.03%     20.61% |         529      3.18%     23.80% |         547      3.29%     27.09% |         487      2.93%     30.02% |         533      3.21%     33.23% |         566      3.41%     36.63% |         618      3.72%     40.35% |         561      3.38%     43.73% |         579      3.48%     47.21% |         523      3.15%     50.36% |         532      3.20%     53.56% |         569      3.42%     56.99% |         562      3.38%     60.37% |         510      3.07%     63.44% |         504      3.03%     66.47% |         520      3.13%     69.60% |         480      2.89%     72.49% |         468      2.82%     75.31% |         546      3.29%     78.59% |         592      3.56%     82.16% |         532      3.20%     85.36% |         479      2.88%     88.24% |         489      2.94%     91.18% |         510      3.07%     94.25% |         490      2.95%     97.20% |         465      2.80%    100.00%
system.ruby.L2Cache_Controller.IS.Mem_Data::total        16616                      
system.ruby.L2Cache_Controller.IM.L1_GETX |           2    100.00%    100.00% |           0      0.00%    100.00% |           0      0.00%    100.00% |           0      0.00%    100.00% |           0      0.00%    100.00% |           0      0.00%    100.00% |           0      0.00%    100.00% |           0      0.00%    100.00% |           0      0.00%    100.00% |           0      0.00%    100.00% |           0      0.00%    100.00% |           0      0.00%    100.00% |           0      0.00%    100.00% |           0      0.00%    100.00% |           0      0.00%    100.00% |           0      0.00%    100.00% |           0      0.00%    100.00% |           0      0.00%    100.00% |           0      0.00%    100.00% |           0      0.00%    100.00% |           0      0.00%    100.00% |           0      0.00%    100.00% |           0      0.00%    100.00% |           0      0.00%    100.00% |           0      0.00%    100.00% |           0      0.00%    100.00% |           0      0.00%    100.00% |           0      0.00%    100.00% |           0      0.00%    100.00% |           0      0.00%    100.00% |           0      0.00%    100.00% |           0      0.00%    100.00%
system.ruby.L2Cache_Controller.IM.L1_GETX::total            2                      
system.ruby.L2Cache_Controller.IM.Mem_Data |       40406      3.13%      3.13% |       40329      3.12%      6.25% |       40341      3.12%      9.38% |       40347      3.13%     12.50% |       40353      3.13%     15.63% |       40363      3.13%     18.76% |       40339      3.12%     21.88% |       40336      3.12%     25.00% |       40349      3.13%     28.13% |       40344      3.12%     31.25% |       40329      3.12%     34.38% |       40358      3.13%     37.50% |       40339      3.12%     40.63% |       40338      3.12%     43.75% |       40341      3.12%     46.88% |       40330      3.12%     50.00% |       40352      3.13%     53.13% |       40351      3.13%     56.25% |       40349      3.13%     59.38% |       40345      3.12%     62.50% |       40340      3.12%     65.63% |       40354      3.13%     68.75% |       40339      3.12%     71.88% |       40341      3.12%     75.00% |       40347      3.13%     78.13% |       40345      3.12%     81.25% |       40349      3.13%     84.38% |       40336      3.12%     87.50% |       40336      3.12%     90.63% |       40337      3.12%     93.75% |       40349      3.13%     96.88% |       40331      3.12%    100.00%
system.ruby.L2Cache_Controller.IM.Mem_Data::total      1291043                      
system.ruby.L2Cache_Controller.SS_MB.Exclusive_Unblock |           4      8.89%      8.89% |           6     13.33%     22.22% |           2      4.44%     26.67% |           6     13.33%     40.00% |           1      2.22%     42.22% |           0      0.00%     42.22% |           1      2.22%     44.44% |           0      0.00%     44.44% |           0      0.00%     44.44% |           1      2.22%     46.67% |           1      2.22%     48.89% |           0      0.00%     48.89% |           4      8.89%     57.78% |           0      0.00%     57.78% |           3      6.67%     64.44% |           0      0.00%     64.44% |           0      0.00%     64.44% |           0      0.00%     64.44% |           9     20.00%     84.44% |           0      0.00%     84.44% |           0      0.00%     84.44% |           0      0.00%     84.44% |           0      0.00%     84.44% |           0      0.00%     84.44% |           1      2.22%     86.67% |           2      4.44%     91.11% |           1      2.22%     93.33% |           1      2.22%     95.56% |           0      0.00%     95.56% |           1      2.22%     97.78% |           1      2.22%    100.00% |           0      0.00%    100.00%
system.ruby.L2Cache_Controller.SS_MB.Exclusive_Unblock::total           45                      
system.ruby.L2Cache_Controller.MT_MB.L1_PUTX |           2    100.00%    100.00% |           0      0.00%    100.00% |           0      0.00%    100.00% |           0      0.00%    100.00% |           0      0.00%    100.00% |           0      0.00%    100.00% |           0      0.00%    100.00% |           0      0.00%    100.00% |           0      0.00%    100.00% |           0      0.00%    100.00% |           0      0.00%    100.00% |           0      0.00%    100.00% |           0      0.00%    100.00% |           0      0.00%    100.00% |           0      0.00%    100.00% |           0      0.00%    100.00% |           0      0.00%    100.00% |           0      0.00%    100.00% |           0      0.00%    100.00% |           0      0.00%    100.00% |           0      0.00%    100.00% |           0      0.00%    100.00% |           0      0.00%    100.00% |           0      0.00%    100.00% |           0      0.00%    100.00% |           0      0.00%    100.00% |           0      0.00%    100.00% |           0      0.00%    100.00% |           0      0.00%    100.00% |           0      0.00%    100.00% |           0      0.00%    100.00% |           0      0.00%    100.00%
system.ruby.L2Cache_Controller.MT_MB.L1_PUTX::total            2                      
system.ruby.L2Cache_Controller.MT_MB.Exclusive_Unblock |      173276      8.49%      8.49% |       64266      3.15%     11.64% |       58757      2.88%     14.51% |       58461      2.86%     17.38% |       57803      2.83%     20.21% |       56502      2.77%     22.98% |       55007      2.69%     25.67% |       55299      2.71%     28.38% |       59143      2.90%     31.28% |       57720      2.83%     34.11% |       60653      2.97%     37.08% |       60209      2.95%     40.03% |       56860      2.79%     42.81% |       56794      2.78%     45.59% |       56449      2.77%     48.36% |       56868      2.79%     51.14% |       59151      2.90%     54.04% |       58514      2.87%     56.91% |       59886      2.93%     59.84% |       60877      2.98%     62.82% |       60907      2.98%     65.81% |       63095      3.09%     68.90% |       64325      3.15%     72.05% |       60548      2.97%     75.02% |       61103      2.99%     78.01% |       62470      3.06%     81.07% |       60798      2.98%     84.05% |       61416      3.01%     87.06% |       64093      3.14%     90.20% |       61918      3.03%     93.23% |       70023      3.43%     96.66% |       68215      3.34%    100.00%
system.ruby.L2Cache_Controller.MT_MB.Exclusive_Unblock::total      2041406                      
system.ruby.L2Cache_Controller.MT_IIB.WB_Data |           0      0.00%      0.00% |           0      0.00%      0.00% |           0      0.00%      0.00% |           0      0.00%      0.00% |           0      0.00%      0.00% |           1     50.00%     50.00% |           0      0.00%     50.00% |           0      0.00%     50.00% |           0      0.00%     50.00% |           0      0.00%     50.00% |           0      0.00%     50.00% |           0      0.00%     50.00% |           0      0.00%     50.00% |           0      0.00%     50.00% |           0      0.00%     50.00% |           0      0.00%     50.00% |           0      0.00%     50.00% |           0      0.00%     50.00% |           0      0.00%     50.00% |           0      0.00%     50.00% |           0      0.00%     50.00% |           0      0.00%     50.00% |           0      0.00%     50.00% |           0      0.00%     50.00% |           0      0.00%     50.00% |           0      0.00%     50.00% |           0      0.00%     50.00% |           0      0.00%     50.00% |           1     50.00%    100.00% |           0      0.00%    100.00% |           0      0.00%    100.00% |           0      0.00%    100.00%
system.ruby.L2Cache_Controller.MT_IIB.WB_Data::total            2                      
system.ruby.L2Cache_Controller.MT_IIB.WB_Data_clean |          19    100.00%    100.00% |           0      0.00%    100.00% |           0      0.00%    100.00% |           0      0.00%    100.00% |           0      0.00%    100.00% |           0      0.00%    100.00% |           0      0.00%    100.00% |           0      0.00%    100.00% |           0      0.00%    100.00% |           0      0.00%    100.00% |           0      0.00%    100.00% |           0      0.00%    100.00% |           0      0.00%    100.00% |           0      0.00%    100.00% |           0      0.00%    100.00% |           0      0.00%    100.00% |           0      0.00%    100.00% |           0      0.00%    100.00% |           0      0.00%    100.00% |           0      0.00%    100.00% |           0      0.00%    100.00% |           0      0.00%    100.00% |           0      0.00%    100.00% |           0      0.00%    100.00% |           0      0.00%    100.00% |           0      0.00%    100.00% |           0      0.00%    100.00% |           0      0.00%    100.00% |           0      0.00%    100.00% |           0      0.00%    100.00% |           0      0.00%    100.00% |           0      0.00%    100.00%
system.ruby.L2Cache_Controller.MT_IIB.WB_Data_clean::total           19                      
system.ruby.L2Cache_Controller.MT_SB.Unblock |          19     90.48%     90.48% |           0      0.00%     90.48% |           0      0.00%     90.48% |           0      0.00%     90.48% |           0      0.00%     90.48% |           1      4.76%     95.24% |           0      0.00%     95.24% |           0      0.00%     95.24% |           0      0.00%     95.24% |           0      0.00%     95.24% |           0      0.00%     95.24% |           0      0.00%     95.24% |           0      0.00%     95.24% |           0      0.00%     95.24% |           0      0.00%     95.24% |           0      0.00%     95.24% |           0      0.00%     95.24% |           0      0.00%     95.24% |           0      0.00%     95.24% |           0      0.00%     95.24% |           0      0.00%     95.24% |           0      0.00%     95.24% |           0      0.00%     95.24% |           0      0.00%     95.24% |           0      0.00%     95.24% |           0      0.00%     95.24% |           0      0.00%     95.24% |           0      0.00%     95.24% |           1      4.76%    100.00% |           0      0.00%    100.00% |           0      0.00%    100.00% |           0      0.00%    100.00%
system.ruby.L2Cache_Controller.MT_SB.Unblock::total           21                      
system.ruby.SimicsNetworkPortInterface_Controller.MessageSend |      162752     22.18%     22.18% |      366893     50.00%     72.18% |       26000      3.54%     75.72% |       26431      3.60%     79.33% |       25380      3.46%     82.78% |       25727      3.51%     86.29% |       25646      3.50%     89.78% |       26232      3.57%     93.36% |       23887      3.26%     96.62% |       24838      3.38%    100.00% |           0      0.00%    100.00% |           0      0.00%    100.00% |           0      0.00%    100.00% |           0      0.00%    100.00% |           0      0.00%    100.00% |           0      0.00%    100.00% |           0      0.00%    100.00% |           0      0.00%    100.00% |           0      0.00%    100.00% |           0      0.00%    100.00% |           0      0.00%    100.00% |           0      0.00%    100.00% |           0      0.00%    100.00% |           0      0.00%    100.00% |           0      0.00%    100.00% |           0      0.00%    100.00% |           0      0.00%    100.00% |           0      0.00%    100.00% |           0      0.00%    100.00% |           0      0.00%    100.00% |           0      0.00%    100.00% |           0      0.00%    100.00%
system.ruby.SimicsNetworkPortInterface_Controller.MessageSend::total       733786                      
system.ruby.SimicsNetworkPortInterface_Controller.MessageRecv |      162752     22.18%     22.18% |      366893     50.00%     72.18% |       26000      3.54%     75.72% |       26431      3.60%     79.33% |       25380      3.46%     82.78% |       25727      3.51%     86.29% |       25646      3.50%     89.78% |       26232      3.57%     93.36% |       23887      3.26%     96.62% |       24838      3.38%    100.00% |           0      0.00%    100.00% |           0      0.00%    100.00% |           0      0.00%    100.00% |           0      0.00%    100.00% |           0      0.00%    100.00% |           0      0.00%    100.00% |           0      0.00%    100.00% |           0      0.00%    100.00% |           0      0.00%    100.00% |           0      0.00%    100.00% |           0      0.00%    100.00% |           0      0.00%    100.00% |           0      0.00%    100.00% |           0      0.00%    100.00% |           0      0.00%    100.00% |           0      0.00%    100.00% |           0      0.00%    100.00% |           0      0.00%    100.00% |           0      0.00%    100.00% |           0      0.00%    100.00% |           0      0.00%    100.00% |           0      0.00%    100.00%
system.ruby.SimicsNetworkPortInterface_Controller.MessageRecv::total       733786                      
system.ruby.SimicsNetworkPortInterface_Controller.A.MessageSend |      162752     22.18%     22.18% |      366893     50.00%     72.18% |       26000      3.54%     75.72% |       26431      3.60%     79.33% |       25380      3.46%     82.78% |       25727      3.51%     86.29% |       25646      3.50%     89.78% |       26232      3.57%     93.36% |       23887      3.26%     96.62% |       24838      3.38%    100.00% |           0      0.00%    100.00% |           0      0.00%    100.00% |           0      0.00%    100.00% |           0      0.00%    100.00% |           0      0.00%    100.00% |           0      0.00%    100.00% |           0      0.00%    100.00% |           0      0.00%    100.00% |           0      0.00%    100.00% |           0      0.00%    100.00% |           0      0.00%    100.00% |           0      0.00%    100.00% |           0      0.00%    100.00% |           0      0.00%    100.00% |           0      0.00%    100.00% |           0      0.00%    100.00% |           0      0.00%    100.00% |           0      0.00%    100.00% |           0      0.00%    100.00% |           0      0.00%    100.00% |           0      0.00%    100.00% |           0      0.00%    100.00%
system.ruby.SimicsNetworkPortInterface_Controller.A.MessageSend::total       733786                      
system.ruby.SimicsNetworkPortInterface_Controller.A.MessageRecv |      162752     22.18%     22.18% |      366893     50.00%     72.18% |       26000      3.54%     75.72% |       26431      3.60%     79.33% |       25380      3.46%     82.78% |       25727      3.51%     86.29% |       25646      3.50%     89.78% |       26232      3.57%     93.36% |       23887      3.26%     96.62% |       24838      3.38%    100.00% |           0      0.00%    100.00% |           0      0.00%    100.00% |           0      0.00%    100.00% |           0      0.00%    100.00% |           0      0.00%    100.00% |           0      0.00%    100.00% |           0      0.00%    100.00% |           0      0.00%    100.00% |           0      0.00%    100.00% |           0      0.00%    100.00% |           0      0.00%    100.00% |           0      0.00%    100.00% |           0      0.00%    100.00% |           0      0.00%    100.00% |           0      0.00%    100.00% |           0      0.00%    100.00% |           0      0.00%    100.00% |           0      0.00%    100.00% |           0      0.00%    100.00% |           0      0.00%    100.00% |           0      0.00%    100.00% |           0      0.00%    100.00%
system.ruby.SimicsNetworkPortInterface_Controller.A.MessageRecv::total       733786                      
system.switch_cpus.kern.inst.arm                    0                       # number of arm instructions executed
system.switch_cpus.kern.inst.quiesce                0                       # number of quiesce instructions executed

---------- End Simulation Statistics   ----------
