
---------- Begin Simulation Statistics ----------
sim_seconds                                  0.153808                       # Number of seconds simulated
sim_ticks                                153807573500                       # Number of ticks simulated
final_tick                               5329975652000                       # Number of ticks from beginning of simulation (restored from checkpoints and never reset)
sim_freq                                 1000000000000                       # Frequency of simulated ticks
host_inst_rate                                  19792                       # Simulator instruction rate (inst/s)
host_op_rate                                    37686                       # Simulator op (including micro ops) rate (op/s)
host_tick_rate                               47145414                       # Simulator tick rate (ticks/s)
host_mem_usage                                3996128                       # Number of bytes of host memory used
host_seconds                                  3262.41                       # Real time elapsed on the host
sim_insts                                    64571146                       # Number of instructions simulated
sim_ops                                     122947433                       # Number of ops (including micro ops) simulated
system.voltage_domain.voltage                       1                       # Voltage in Volts
system.clk_domain.clock                           500                       # Clock period in ticks
system.mem_ctrls0.bytes_read::ruby.dir_cntrl0     25269376                       # Number of bytes read from this memory
system.mem_ctrls0.bytes_read::total          25269376                       # Number of bytes read from this memory
system.mem_ctrls0.bytes_written::ruby.dir_cntrl0     21422208                       # Number of bytes written to this memory
system.mem_ctrls0.bytes_written::total       21422208                       # Number of bytes written to this memory
system.mem_ctrls0.num_reads::ruby.dir_cntrl0       394834                       # Number of read requests responded to by this memory
system.mem_ctrls0.num_reads::total             394834                       # Number of read requests responded to by this memory
system.mem_ctrls0.num_writes::ruby.dir_cntrl0       334722                       # Number of write requests responded to by this memory
system.mem_ctrls0.num_writes::total            334722                       # Number of write requests responded to by this memory
system.mem_ctrls0.bw_read::ruby.dir_cntrl0    164292144                       # Total read bandwidth from this memory (bytes/s)
system.mem_ctrls0.bw_read::total            164292144                       # Total read bandwidth from this memory (bytes/s)
system.mem_ctrls0.bw_write::ruby.dir_cntrl0    139279279                       # Write bandwidth from this memory (bytes/s)
system.mem_ctrls0.bw_write::total           139279279                       # Write bandwidth from this memory (bytes/s)
system.mem_ctrls0.bw_total::ruby.dir_cntrl0    303571423                       # Total bandwidth to/from this memory (bytes/s)
system.mem_ctrls0.bw_total::total           303571423                       # Total bandwidth to/from this memory (bytes/s)
system.mem_ctrls0.readReqs                     394835                       # Number of read requests accepted
system.mem_ctrls0.writeReqs                    334722                       # Number of write requests accepted
system.mem_ctrls0.readBursts                   394835                       # Number of DRAM read bursts, including those serviced by the write queue
system.mem_ctrls0.writeBursts                  334722                       # Number of DRAM write bursts, including those merged in the write queue
system.mem_ctrls0.bytesReadDRAM              25268288                       # Total number of bytes read from DRAM
system.mem_ctrls0.bytesReadWrQ                   1152                       # Total number of bytes read from write queue
system.mem_ctrls0.bytesWritten               21422144                       # Total number of bytes written to DRAM
system.mem_ctrls0.bytesReadSys               25269440                       # Total read bytes from the system interface side
system.mem_ctrls0.bytesWrittenSys            21422208                       # Total written bytes from the system interface side
system.mem_ctrls0.servicedByWrQ                    18                       # Number of DRAM read bursts serviced by the write queue
system.mem_ctrls0.mergedWrBursts                    0                       # Number of DRAM write bursts merged with an existing one
system.mem_ctrls0.neitherReadNorWriteReqs            0                       # Number of requests that are neither read nor write
system.mem_ctrls0.perBankRdBursts::0            24363                       # Per bank write bursts
system.mem_ctrls0.perBankRdBursts::1            25077                       # Per bank write bursts
system.mem_ctrls0.perBankRdBursts::2            24640                       # Per bank write bursts
system.mem_ctrls0.perBankRdBursts::3            24951                       # Per bank write bursts
system.mem_ctrls0.perBankRdBursts::4            24587                       # Per bank write bursts
system.mem_ctrls0.perBankRdBursts::5            24929                       # Per bank write bursts
system.mem_ctrls0.perBankRdBursts::6            24975                       # Per bank write bursts
system.mem_ctrls0.perBankRdBursts::7            24750                       # Per bank write bursts
system.mem_ctrls0.perBankRdBursts::8            24655                       # Per bank write bursts
system.mem_ctrls0.perBankRdBursts::9            24786                       # Per bank write bursts
system.mem_ctrls0.perBankRdBursts::10           24576                       # Per bank write bursts
system.mem_ctrls0.perBankRdBursts::11           25073                       # Per bank write bursts
system.mem_ctrls0.perBankRdBursts::12           24327                       # Per bank write bursts
system.mem_ctrls0.perBankRdBursts::13           24245                       # Per bank write bursts
system.mem_ctrls0.perBankRdBursts::14           24411                       # Per bank write bursts
system.mem_ctrls0.perBankRdBursts::15           24472                       # Per bank write bursts
system.mem_ctrls0.perBankWrBursts::0            20948                       # Per bank write bursts
system.mem_ctrls0.perBankWrBursts::1            20820                       # Per bank write bursts
system.mem_ctrls0.perBankWrBursts::2            20845                       # Per bank write bursts
system.mem_ctrls0.perBankWrBursts::3            21126                       # Per bank write bursts
system.mem_ctrls0.perBankWrBursts::4            20769                       # Per bank write bursts
system.mem_ctrls0.perBankWrBursts::5            21058                       # Per bank write bursts
system.mem_ctrls0.perBankWrBursts::6            21075                       # Per bank write bursts
system.mem_ctrls0.perBankWrBursts::7            21045                       # Per bank write bursts
system.mem_ctrls0.perBankWrBursts::8            21122                       # Per bank write bursts
system.mem_ctrls0.perBankWrBursts::9            20936                       # Per bank write bursts
system.mem_ctrls0.perBankWrBursts::10           20838                       # Per bank write bursts
system.mem_ctrls0.perBankWrBursts::11           20885                       # Per bank write bursts
system.mem_ctrls0.perBankWrBursts::12           20629                       # Per bank write bursts
system.mem_ctrls0.perBankWrBursts::13           20910                       # Per bank write bursts
system.mem_ctrls0.perBankWrBursts::14           20921                       # Per bank write bursts
system.mem_ctrls0.perBankWrBursts::15           20794                       # Per bank write bursts
system.mem_ctrls0.numRdRetry                   130297                       # Number of times read queue was full causing retry
system.mem_ctrls0.numWrRetry                    15944                       # Number of times write queue was full causing retry
system.mem_ctrls0.totGap                 153807309500                       # Total gap between requests
system.mem_ctrls0.readPktSize::0                    0                       # Read request sizes (log2)
system.mem_ctrls0.readPktSize::1                    0                       # Read request sizes (log2)
system.mem_ctrls0.readPktSize::2                    0                       # Read request sizes (log2)
system.mem_ctrls0.readPktSize::3                    0                       # Read request sizes (log2)
system.mem_ctrls0.readPktSize::4                    0                       # Read request sizes (log2)
system.mem_ctrls0.readPktSize::5                    0                       # Read request sizes (log2)
system.mem_ctrls0.readPktSize::6               394835                       # Read request sizes (log2)
system.mem_ctrls0.writePktSize::0                   0                       # Write request sizes (log2)
system.mem_ctrls0.writePktSize::1                   0                       # Write request sizes (log2)
system.mem_ctrls0.writePktSize::2                   0                       # Write request sizes (log2)
system.mem_ctrls0.writePktSize::3                   0                       # Write request sizes (log2)
system.mem_ctrls0.writePktSize::4                   0                       # Write request sizes (log2)
system.mem_ctrls0.writePktSize::5                   0                       # Write request sizes (log2)
system.mem_ctrls0.writePktSize::6              334722                       # Write request sizes (log2)
system.mem_ctrls0.rdQLenPdf::0                 204592                       # What read queue length does an incoming req see
system.mem_ctrls0.rdQLenPdf::1                   5783                       # What read queue length does an incoming req see
system.mem_ctrls0.rdQLenPdf::2                   3181                       # What read queue length does an incoming req see
system.mem_ctrls0.rdQLenPdf::3                    706                       # What read queue length does an incoming req see
system.mem_ctrls0.rdQLenPdf::4                    788                       # What read queue length does an incoming req see
system.mem_ctrls0.rdQLenPdf::5                    907                       # What read queue length does an incoming req see
system.mem_ctrls0.rdQLenPdf::6                    967                       # What read queue length does an incoming req see
system.mem_ctrls0.rdQLenPdf::7                   1044                       # What read queue length does an incoming req see
system.mem_ctrls0.rdQLenPdf::8                   1107                       # What read queue length does an incoming req see
system.mem_ctrls0.rdQLenPdf::9                   1157                       # What read queue length does an incoming req see
system.mem_ctrls0.rdQLenPdf::10                  1217                       # What read queue length does an incoming req see
system.mem_ctrls0.rdQLenPdf::11                  1259                       # What read queue length does an incoming req see
system.mem_ctrls0.rdQLenPdf::12                  1306                       # What read queue length does an incoming req see
system.mem_ctrls0.rdQLenPdf::13                  1320                       # What read queue length does an incoming req see
system.mem_ctrls0.rdQLenPdf::14                  1338                       # What read queue length does an incoming req see
system.mem_ctrls0.rdQLenPdf::15                  1360                       # What read queue length does an incoming req see
system.mem_ctrls0.rdQLenPdf::16                  1400                       # What read queue length does an incoming req see
system.mem_ctrls0.rdQLenPdf::17                  1405                       # What read queue length does an incoming req see
system.mem_ctrls0.rdQLenPdf::18                  1382                       # What read queue length does an incoming req see
system.mem_ctrls0.rdQLenPdf::19                  1461                       # What read queue length does an incoming req see
system.mem_ctrls0.rdQLenPdf::20                  1597                       # What read queue length does an incoming req see
system.mem_ctrls0.rdQLenPdf::21                  1677                       # What read queue length does an incoming req see
system.mem_ctrls0.rdQLenPdf::22                  1777                       # What read queue length does an incoming req see
system.mem_ctrls0.rdQLenPdf::23                  1849                       # What read queue length does an incoming req see
system.mem_ctrls0.rdQLenPdf::24                  1965                       # What read queue length does an incoming req see
system.mem_ctrls0.rdQLenPdf::25                  2076                       # What read queue length does an incoming req see
system.mem_ctrls0.rdQLenPdf::26                  2247                       # What read queue length does an incoming req see
system.mem_ctrls0.rdQLenPdf::27                  2439                       # What read queue length does an incoming req see
system.mem_ctrls0.rdQLenPdf::28                  2650                       # What read queue length does an incoming req see
system.mem_ctrls0.rdQLenPdf::29                  2955                       # What read queue length does an incoming req see
system.mem_ctrls0.rdQLenPdf::30                  3627                       # What read queue length does an incoming req see
system.mem_ctrls0.rdQLenPdf::31                136278                       # What read queue length does an incoming req see
system.mem_ctrls0.wrQLenPdf::0                  48455                       # What write queue length does an incoming req see
system.mem_ctrls0.wrQLenPdf::1                  51134                       # What write queue length does an incoming req see
system.mem_ctrls0.wrQLenPdf::2                  52693                       # What write queue length does an incoming req see
system.mem_ctrls0.wrQLenPdf::3                  53143                       # What write queue length does an incoming req see
system.mem_ctrls0.wrQLenPdf::4                  54279                       # What write queue length does an incoming req see
system.mem_ctrls0.wrQLenPdf::5                  16647                       # What write queue length does an incoming req see
system.mem_ctrls0.wrQLenPdf::6                  21774                       # What write queue length does an incoming req see
system.mem_ctrls0.wrQLenPdf::7                  36597                       # What write queue length does an incoming req see
system.mem_ctrls0.bytesPerActivate::samples       214846                       # Bytes accessed per row activation
system.mem_ctrls0.bytesPerActivate::mean   217.310334                       # Bytes accessed per row activation
system.mem_ctrls0.bytesPerActivate::gmean   165.098166                       # Bytes accessed per row activation
system.mem_ctrls0.bytesPerActivate::stdev   167.156064                       # Bytes accessed per row activation
system.mem_ctrls0.bytesPerActivate::0-127        67862     31.59%     31.59% # Bytes accessed per row activation
system.mem_ctrls0.bytesPerActivate::128-255        54243     25.25%     56.83% # Bytes accessed per row activation
system.mem_ctrls0.bytesPerActivate::256-383        69875     32.52%     89.36% # Bytes accessed per row activation
system.mem_ctrls0.bytesPerActivate::384-511        10186      4.74%     94.10% # Bytes accessed per row activation
system.mem_ctrls0.bytesPerActivate::512-639         5752      2.68%     96.78% # Bytes accessed per row activation
system.mem_ctrls0.bytesPerActivate::640-767         2810      1.31%     98.08% # Bytes accessed per row activation
system.mem_ctrls0.bytesPerActivate::768-895         1495      0.70%     98.78% # Bytes accessed per row activation
system.mem_ctrls0.bytesPerActivate::896-1023         1027      0.48%     99.26% # Bytes accessed per row activation
system.mem_ctrls0.bytesPerActivate::1024-1151         1596      0.74%    100.00% # Bytes accessed per row activation
system.mem_ctrls0.bytesPerActivate::total       214846                       # Bytes accessed per row activation
system.mem_ctrls0.rdPerTurnAround::samples        49988                       # Reads before turning the bus around for writes
system.mem_ctrls0.rdPerTurnAround::mean      7.898156                       # Reads before turning the bus around for writes
system.mem_ctrls0.rdPerTurnAround::stdev    18.979259                       # Reads before turning the bus around for writes
system.mem_ctrls0.rdPerTurnAround::0-127        49980     99.98%     99.98% # Reads before turning the bus around for writes
system.mem_ctrls0.rdPerTurnAround::128-255            7      0.01%    100.00% # Reads before turning the bus around for writes
system.mem_ctrls0.rdPerTurnAround::3968-4095            1      0.00%    100.00% # Reads before turning the bus around for writes
system.mem_ctrls0.rdPerTurnAround::total        49988                       # Reads before turning the bus around for writes
system.mem_ctrls0.wrPerTurnAround::samples        49988                       # Writes before turning the bus around for reads
system.mem_ctrls0.wrPerTurnAround::mean      6.696027                       # Writes before turning the bus around for reads
system.mem_ctrls0.wrPerTurnAround::gmean     6.086658                       # Writes before turning the bus around for reads
system.mem_ctrls0.wrPerTurnAround::stdev     3.524320                       # Writes before turning the bus around for reads
system.mem_ctrls0.wrPerTurnAround::4-7          40256     80.53%     80.53% # Writes before turning the bus around for reads
system.mem_ctrls0.wrPerTurnAround::8-11          1959      3.92%     84.45% # Writes before turning the bus around for reads
system.mem_ctrls0.wrPerTurnAround::12-15         5018     10.04%     94.49% # Writes before turning the bus around for reads
system.mem_ctrls0.wrPerTurnAround::16-19         2755      5.51%    100.00% # Writes before turning the bus around for reads
system.mem_ctrls0.wrPerTurnAround::total        49988                       # Writes before turning the bus around for reads
system.mem_ctrls0.totQLat                 65460871944                       # Total ticks spent queuing
system.mem_ctrls0.totMemAccLat            72863690694                       # Total ticks spent from burst creation until serviced by the DRAM
system.mem_ctrls0.totBusLat                1974085000                       # Total ticks spent in databus transfers
system.mem_ctrls0.avgQLat                   165800.54                       # Average queueing delay per DRAM burst
system.mem_ctrls0.avgBusLat                   5000.00                       # Average bus latency per DRAM burst
system.mem_ctrls0.avgMemAccLat              184550.54                       # Average memory access latency per DRAM burst
system.mem_ctrls0.avgRdBW                      164.29                       # Average DRAM read bandwidth in MiByte/s
system.mem_ctrls0.avgWrBW                      139.28                       # Average achieved write bandwidth in MiByte/s
system.mem_ctrls0.avgRdBWSys                   164.29                       # Average system read bandwidth in MiByte/s
system.mem_ctrls0.avgWrBWSys                   139.28                       # Average system write bandwidth in MiByte/s
system.mem_ctrls0.peakBW                     12800.00                       # Theoretical peak bandwidth in MiByte/s
system.mem_ctrls0.busUtil                        2.37                       # Data bus utilization in percentage
system.mem_ctrls0.busUtilRead                    1.28                       # Data bus utilization in percentage for reads
system.mem_ctrls0.busUtilWrite                   1.09                       # Data bus utilization in percentage for writes
system.mem_ctrls0.avgRdQLen                      1.44                       # Average read queue length when enqueuing
system.mem_ctrls0.avgWrQLen                      2.99                       # Average write queue length when enqueuing
system.mem_ctrls0.readRowHits                  295225                       # Number of row buffer hits during reads
system.mem_ctrls0.writeRowHits                 219452                       # Number of row buffer hits during writes
system.mem_ctrls0.readRowHitRate                74.78                       # Row buffer hit rate for reads
system.mem_ctrls0.writeRowHitRate               65.56                       # Row buffer hit rate for writes
system.mem_ctrls0.avgGap                    210822.88                       # Average gap between requests
system.mem_ctrls0.pageHitRate                   70.55                       # Row buffer hit rate, read and write combined
system.mem_ctrls0.memoryStateTime::IDLE   26565825750                       # Time in different power states
system.mem_ctrls0.memoryStateTime::REF     5135780000                       # Time in different power states
system.mem_ctrls0.memoryStateTime::PRE_PDN            0                       # Time in different power states
system.mem_ctrls0.memoryStateTime::ACT   122100487250                       # Time in different power states
system.mem_ctrls0.memoryStateTime::ACT_PDN            0                       # Time in different power states
system.mem_ctrls0.actEnergy::0              816850440                       # Energy for activate commands per rank (pJ)
system.mem_ctrls0.actEnergy::1              807241680                       # Energy for activate commands per rank (pJ)
system.mem_ctrls0.preEnergy::0              445702125                       # Energy for precharge commands per rank (pJ)
system.mem_ctrls0.preEnergy::1              440459250                       # Energy for precharge commands per rank (pJ)
system.mem_ctrls0.readEnergy::0            1546178400                       # Energy for read commands per rank (pJ)
system.mem_ctrls0.readEnergy::1            1532965200                       # Energy for read commands per rank (pJ)
system.mem_ctrls0.writeEnergy::0           1086488640                       # Energy for write commands per rank (pJ)
system.mem_ctrls0.writeEnergy::1           1082218320                       # Energy for write commands per rank (pJ)
system.mem_ctrls0.refreshEnergy::0        10045585680                       # Energy for refresh commands per rank (pJ)
system.mem_ctrls0.refreshEnergy::1        10045585680                       # Energy for refresh commands per rank (pJ)
system.mem_ctrls0.actBackEnergy::0        61107190290                       # Energy for active background per rank (pJ)
system.mem_ctrls0.actBackEnergy::1        60850041345                       # Energy for active background per rank (pJ)
system.mem_ctrls0.preBackEnergy::0        38678449500                       # Energy for precharge background per rank (pJ)
system.mem_ctrls0.preBackEnergy::1        38904018750                       # Energy for precharge background per rank (pJ)
system.mem_ctrls0.totalEnergy::0         113726445075                       # Total energy per rank (pJ)
system.mem_ctrls0.totalEnergy::1         113662530225                       # Total energy per rank (pJ)
system.mem_ctrls0.averagePower::0          739.433726                       # Core power per rank (mW)
system.mem_ctrls0.averagePower::1          739.018160                       # Core power per rank (mW)
system.mem_ctrls1.bytes_read::ruby.dir_cntrl1     24509376                       # Number of bytes read from this memory
system.mem_ctrls1.bytes_read::total          24509376                       # Number of bytes read from this memory
system.mem_ctrls1.bytes_written::ruby.dir_cntrl1     20684928                       # Number of bytes written to this memory
system.mem_ctrls1.bytes_written::total       20684928                       # Number of bytes written to this memory
system.mem_ctrls1.num_reads::ruby.dir_cntrl1       382959                       # Number of read requests responded to by this memory
system.mem_ctrls1.num_reads::total             382959                       # Number of read requests responded to by this memory
system.mem_ctrls1.num_writes::ruby.dir_cntrl1       323202                       # Number of write requests responded to by this memory
system.mem_ctrls1.num_writes::total            323202                       # Number of write requests responded to by this memory
system.mem_ctrls1.bw_read::ruby.dir_cntrl1    159350905                       # Total read bandwidth from this memory (bytes/s)
system.mem_ctrls1.bw_read::total            159350905                       # Total read bandwidth from this memory (bytes/s)
system.mem_ctrls1.bw_write::ruby.dir_cntrl1    134485757                       # Write bandwidth from this memory (bytes/s)
system.mem_ctrls1.bw_write::total           134485757                       # Write bandwidth from this memory (bytes/s)
system.mem_ctrls1.bw_total::ruby.dir_cntrl1    293836662                       # Total bandwidth to/from this memory (bytes/s)
system.mem_ctrls1.bw_total::total           293836662                       # Total bandwidth to/from this memory (bytes/s)
system.mem_ctrls1.readReqs                     382959                       # Number of read requests accepted
system.mem_ctrls1.writeReqs                    323202                       # Number of write requests accepted
system.mem_ctrls1.readBursts                   382959                       # Number of DRAM read bursts, including those serviced by the write queue
system.mem_ctrls1.writeBursts                  323202                       # Number of DRAM write bursts, including those merged in the write queue
system.mem_ctrls1.bytesReadDRAM              24508224                       # Total number of bytes read from DRAM
system.mem_ctrls1.bytesReadWrQ                   1152                       # Total number of bytes read from write queue
system.mem_ctrls1.bytesWritten               20684864                       # Total number of bytes written to DRAM
system.mem_ctrls1.bytesReadSys               24509376                       # Total read bytes from the system interface side
system.mem_ctrls1.bytesWrittenSys            20684928                       # Total written bytes from the system interface side
system.mem_ctrls1.servicedByWrQ                    18                       # Number of DRAM read bursts serviced by the write queue
system.mem_ctrls1.mergedWrBursts                    0                       # Number of DRAM write bursts merged with an existing one
system.mem_ctrls1.neitherReadNorWriteReqs            0                       # Number of requests that are neither read nor write
system.mem_ctrls1.perBankRdBursts::0            23652                       # Per bank write bursts
system.mem_ctrls1.perBankRdBursts::1            24327                       # Per bank write bursts
system.mem_ctrls1.perBankRdBursts::2            23893                       # Per bank write bursts
system.mem_ctrls1.perBankRdBursts::3            24204                       # Per bank write bursts
system.mem_ctrls1.perBankRdBursts::4            23868                       # Per bank write bursts
system.mem_ctrls1.perBankRdBursts::5            24184                       # Per bank write bursts
system.mem_ctrls1.perBankRdBursts::6            24230                       # Per bank write bursts
system.mem_ctrls1.perBankRdBursts::7            24043                       # Per bank write bursts
system.mem_ctrls1.perBankRdBursts::8            23915                       # Per bank write bursts
system.mem_ctrls1.perBankRdBursts::9            24038                       # Per bank write bursts
system.mem_ctrls1.perBankRdBursts::10           23806                       # Per bank write bursts
system.mem_ctrls1.perBankRdBursts::11           24345                       # Per bank write bursts
system.mem_ctrls1.perBankRdBursts::12           23594                       # Per bank write bursts
system.mem_ctrls1.perBankRdBursts::13           23492                       # Per bank write bursts
system.mem_ctrls1.perBankRdBursts::14           23598                       # Per bank write bursts
system.mem_ctrls1.perBankRdBursts::15           23752                       # Per bank write bursts
system.mem_ctrls1.perBankWrBursts::0            20226                       # Per bank write bursts
system.mem_ctrls1.perBankWrBursts::1            20116                       # Per bank write bursts
system.mem_ctrls1.perBankWrBursts::2            20139                       # Per bank write bursts
system.mem_ctrls1.perBankWrBursts::3            20418                       # Per bank write bursts
system.mem_ctrls1.perBankWrBursts::4            20059                       # Per bank write bursts
system.mem_ctrls1.perBankWrBursts::5            20347                       # Per bank write bursts
system.mem_ctrls1.perBankWrBursts::6            20341                       # Per bank write bursts
system.mem_ctrls1.perBankWrBursts::7            20315                       # Per bank write bursts
system.mem_ctrls1.perBankWrBursts::8            20401                       # Per bank write bursts
system.mem_ctrls1.perBankWrBursts::9            20215                       # Per bank write bursts
system.mem_ctrls1.perBankWrBursts::10           20121                       # Per bank write bursts
system.mem_ctrls1.perBankWrBursts::11           20170                       # Per bank write bursts
system.mem_ctrls1.perBankWrBursts::12           19910                       # Per bank write bursts
system.mem_ctrls1.perBankWrBursts::13           20190                       # Per bank write bursts
system.mem_ctrls1.perBankWrBursts::14           20152                       # Per bank write bursts
system.mem_ctrls1.perBankWrBursts::15           20081                       # Per bank write bursts
system.mem_ctrls1.numRdRetry                    93471                       # Number of times read queue was full causing retry
system.mem_ctrls1.numWrRetry                    13667                       # Number of times write queue was full causing retry
system.mem_ctrls1.totGap                 153806818500                       # Total gap between requests
system.mem_ctrls1.readPktSize::0                    0                       # Read request sizes (log2)
system.mem_ctrls1.readPktSize::1                    0                       # Read request sizes (log2)
system.mem_ctrls1.readPktSize::2                    0                       # Read request sizes (log2)
system.mem_ctrls1.readPktSize::3                    0                       # Read request sizes (log2)
system.mem_ctrls1.readPktSize::4                    0                       # Read request sizes (log2)
system.mem_ctrls1.readPktSize::5                    0                       # Read request sizes (log2)
system.mem_ctrls1.readPktSize::6               382959                       # Read request sizes (log2)
system.mem_ctrls1.writePktSize::0                   0                       # Write request sizes (log2)
system.mem_ctrls1.writePktSize::1                   0                       # Write request sizes (log2)
system.mem_ctrls1.writePktSize::2                   0                       # Write request sizes (log2)
system.mem_ctrls1.writePktSize::3                   0                       # Write request sizes (log2)
system.mem_ctrls1.writePktSize::4                   0                       # Write request sizes (log2)
system.mem_ctrls1.writePktSize::5                   0                       # Write request sizes (log2)
system.mem_ctrls1.writePktSize::6              323202                       # Write request sizes (log2)
system.mem_ctrls1.rdQLenPdf::0                 200354                       # What read queue length does an incoming req see
system.mem_ctrls1.rdQLenPdf::1                   1498                       # What read queue length does an incoming req see
system.mem_ctrls1.rdQLenPdf::2                   1039                       # What read queue length does an incoming req see
system.mem_ctrls1.rdQLenPdf::3                   1198                       # What read queue length does an incoming req see
system.mem_ctrls1.rdQLenPdf::4                   1459                       # What read queue length does an incoming req see
system.mem_ctrls1.rdQLenPdf::5                   1584                       # What read queue length does an incoming req see
system.mem_ctrls1.rdQLenPdf::6                   1709                       # What read queue length does an incoming req see
system.mem_ctrls1.rdQLenPdf::7                   1920                       # What read queue length does an incoming req see
system.mem_ctrls1.rdQLenPdf::8                   2030                       # What read queue length does an incoming req see
system.mem_ctrls1.rdQLenPdf::9                   2175                       # What read queue length does an incoming req see
system.mem_ctrls1.rdQLenPdf::10                  2239                       # What read queue length does an incoming req see
system.mem_ctrls1.rdQLenPdf::11                  2357                       # What read queue length does an incoming req see
system.mem_ctrls1.rdQLenPdf::12                  2446                       # What read queue length does an incoming req see
system.mem_ctrls1.rdQLenPdf::13                  2454                       # What read queue length does an incoming req see
system.mem_ctrls1.rdQLenPdf::14                  2514                       # What read queue length does an incoming req see
system.mem_ctrls1.rdQLenPdf::15                  2611                       # What read queue length does an incoming req see
system.mem_ctrls1.rdQLenPdf::16                  2713                       # What read queue length does an incoming req see
system.mem_ctrls1.rdQLenPdf::17                  2836                       # What read queue length does an incoming req see
system.mem_ctrls1.rdQLenPdf::18                  2921                       # What read queue length does an incoming req see
system.mem_ctrls1.rdQLenPdf::19                  2977                       # What read queue length does an incoming req see
system.mem_ctrls1.rdQLenPdf::20                  3048                       # What read queue length does an incoming req see
system.mem_ctrls1.rdQLenPdf::21                  3166                       # What read queue length does an incoming req see
system.mem_ctrls1.rdQLenPdf::22                  3287                       # What read queue length does an incoming req see
system.mem_ctrls1.rdQLenPdf::23                  3355                       # What read queue length does an incoming req see
system.mem_ctrls1.rdQLenPdf::24                  3344                       # What read queue length does an incoming req see
system.mem_ctrls1.rdQLenPdf::25                  3578                       # What read queue length does an incoming req see
system.mem_ctrls1.rdQLenPdf::26                  3784                       # What read queue length does an incoming req see
system.mem_ctrls1.rdQLenPdf::27                  4095                       # What read queue length does an incoming req see
system.mem_ctrls1.rdQLenPdf::28                  4206                       # What read queue length does an incoming req see
system.mem_ctrls1.rdQLenPdf::29                  4603                       # What read queue length does an incoming req see
system.mem_ctrls1.rdQLenPdf::30                  5163                       # What read queue length does an incoming req see
system.mem_ctrls1.rdQLenPdf::31                100278                       # What read queue length does an incoming req see
system.mem_ctrls1.wrQLenPdf::0                  46707                       # What write queue length does an incoming req see
system.mem_ctrls1.wrQLenPdf::1                  50321                       # What write queue length does an incoming req see
system.mem_ctrls1.wrQLenPdf::2                  51971                       # What write queue length does an incoming req see
system.mem_ctrls1.wrQLenPdf::3                  52834                       # What write queue length does an incoming req see
system.mem_ctrls1.wrQLenPdf::4                  53547                       # What write queue length does an incoming req see
system.mem_ctrls1.wrQLenPdf::5                  16563                       # What write queue length does an incoming req see
system.mem_ctrls1.wrQLenPdf::6                  20221                       # What write queue length does an incoming req see
system.mem_ctrls1.wrQLenPdf::7                  31038                       # What write queue length does an incoming req see
system.mem_ctrls1.bytesPerActivate::samples       185884                       # Bytes accessed per row activation
system.mem_ctrls1.bytesPerActivate::mean   243.117643                       # Bytes accessed per row activation
system.mem_ctrls1.bytesPerActivate::gmean   191.728375                       # Bytes accessed per row activation
system.mem_ctrls1.bytesPerActivate::stdev   171.296224                       # Bytes accessed per row activation
system.mem_ctrls1.bytesPerActivate::0-127        39591     21.30%     21.30% # Bytes accessed per row activation
system.mem_ctrls1.bytesPerActivate::128-255        52350     28.16%     49.46% # Bytes accessed per row activation
system.mem_ctrls1.bytesPerActivate::256-383        69968     37.64%     87.10% # Bytes accessed per row activation
system.mem_ctrls1.bytesPerActivate::384-511        10514      5.66%     92.76% # Bytes accessed per row activation
system.mem_ctrls1.bytesPerActivate::512-639         6093      3.28%     96.04% # Bytes accessed per row activation
system.mem_ctrls1.bytesPerActivate::640-767         2765      1.49%     97.52% # Bytes accessed per row activation
system.mem_ctrls1.bytesPerActivate::768-895         1615      0.87%     98.39% # Bytes accessed per row activation
system.mem_ctrls1.bytesPerActivate::896-1023         1053      0.57%     98.96% # Bytes accessed per row activation
system.mem_ctrls1.bytesPerActivate::1024-1151         1935      1.04%    100.00% # Bytes accessed per row activation
system.mem_ctrls1.bytesPerActivate::total       185884                       # Bytes accessed per row activation
system.mem_ctrls1.rdPerTurnAround::samples        48407                       # Reads before turning the bus around for writes
system.mem_ctrls1.rdPerTurnAround::mean      7.910715                       # Reads before turning the bus around for writes
system.mem_ctrls1.rdPerTurnAround::stdev    15.654613                       # Reads before turning the bus around for writes
system.mem_ctrls1.rdPerTurnAround::0-127        48401     99.99%     99.99% # Reads before turning the bus around for writes
system.mem_ctrls1.rdPerTurnAround::128-255            4      0.01%    100.00% # Reads before turning the bus around for writes
system.mem_ctrls1.rdPerTurnAround::1152-1279            1      0.00%    100.00% # Reads before turning the bus around for writes
system.mem_ctrls1.rdPerTurnAround::2816-2943            1      0.00%    100.00% # Reads before turning the bus around for writes
system.mem_ctrls1.rdPerTurnAround::total        48407                       # Reads before turning the bus around for writes
system.mem_ctrls1.wrPerTurnAround::samples        48407                       # Writes before turning the bus around for reads
system.mem_ctrls1.wrPerTurnAround::mean      6.676741                       # Writes before turning the bus around for reads
system.mem_ctrls1.wrPerTurnAround::gmean     6.080663                       # Writes before turning the bus around for reads
system.mem_ctrls1.wrPerTurnAround::stdev     3.475924                       # Writes before turning the bus around for reads
system.mem_ctrls1.wrPerTurnAround::4-7          38557     79.65%     79.65% # Writes before turning the bus around for reads
system.mem_ctrls1.wrPerTurnAround::8-11          2806      5.80%     85.45% # Writes before turning the bus around for reads
system.mem_ctrls1.wrPerTurnAround::12-15         4330      8.94%     94.39% # Writes before turning the bus around for reads
system.mem_ctrls1.wrPerTurnAround::16-19         2714      5.61%    100.00% # Writes before turning the bus around for reads
system.mem_ctrls1.wrPerTurnAround::total        48407                       # Writes before turning the bus around for reads
system.mem_ctrls1.totQLat                 58726077265                       # Total ticks spent queuing
system.mem_ctrls1.totMemAccLat            65906221015                       # Total ticks spent from burst creation until serviced by the DRAM
system.mem_ctrls1.totBusLat                1914705000                       # Total ticks spent in databus transfers
system.mem_ctrls1.avgQLat                   153355.42                       # Average queueing delay per DRAM burst
system.mem_ctrls1.avgBusLat                   5000.00                       # Average bus latency per DRAM burst
system.mem_ctrls1.avgMemAccLat              172105.42                       # Average memory access latency per DRAM burst
system.mem_ctrls1.avgRdBW                      159.34                       # Average DRAM read bandwidth in MiByte/s
system.mem_ctrls1.avgWrBW                      134.49                       # Average achieved write bandwidth in MiByte/s
system.mem_ctrls1.avgRdBWSys                   159.35                       # Average system read bandwidth in MiByte/s
system.mem_ctrls1.avgWrBWSys                   134.49                       # Average system write bandwidth in MiByte/s
system.mem_ctrls1.peakBW                     12800.00                       # Theoretical peak bandwidth in MiByte/s
system.mem_ctrls1.busUtil                        2.30                       # Data bus utilization in percentage
system.mem_ctrls1.busUtilRead                    1.24                       # Data bus utilization in percentage for reads
system.mem_ctrls1.busUtilWrite                   1.05                       # Data bus utilization in percentage for writes
system.mem_ctrls1.avgRdQLen                      1.39                       # Average read queue length when enqueuing
system.mem_ctrls1.avgWrQLen                      2.99                       # Average write queue length when enqueuing
system.mem_ctrls1.readRowHits                  291949                       # Number of row buffer hits during reads
system.mem_ctrls1.writeRowHits                 228298                       # Number of row buffer hits during writes
system.mem_ctrls1.readRowHitRate                76.24                       # Row buffer hit rate for reads
system.mem_ctrls1.writeRowHitRate               70.64                       # Row buffer hit rate for writes
system.mem_ctrls1.avgGap                    217807.01                       # Average gap between requests
system.mem_ctrls1.pageHitRate                   73.67                       # Row buffer hit rate, read and write combined
system.mem_ctrls1.memoryStateTime::IDLE   27041890500                       # Time in different power states
system.mem_ctrls1.memoryStateTime::REF     5135780000                       # Time in different power states
system.mem_ctrls1.memoryStateTime::PRE_PDN            0                       # Time in different power states
system.mem_ctrls1.memoryStateTime::ACT   121624456000                       # Time in different power states
system.mem_ctrls1.memoryStateTime::ACT_PDN            0                       # Time in different power states
system.mem_ctrls1.actEnergy::0              707343840                       # Energy for activate commands per rank (pJ)
system.mem_ctrls1.actEnergy::1              697825800                       # Energy for activate commands per rank (pJ)
system.mem_ctrls1.preEnergy::0              385951500                       # Energy for precharge commands per rank (pJ)
system.mem_ctrls1.preEnergy::1              380758125                       # Energy for precharge commands per rank (pJ)
system.mem_ctrls1.readEnergy::0            1500400200                       # Energy for read commands per rank (pJ)
system.mem_ctrls1.readEnergy::1            1486149600                       # Energy for read commands per rank (pJ)
system.mem_ctrls1.writeEnergy::0           1049384160                       # Energy for write commands per rank (pJ)
system.mem_ctrls1.writeEnergy::1           1044692640                       # Energy for write commands per rank (pJ)
system.mem_ctrls1.refreshEnergy::0        10045585680                       # Energy for refresh commands per rank (pJ)
system.mem_ctrls1.refreshEnergy::1        10045585680                       # Energy for refresh commands per rank (pJ)
system.mem_ctrls1.actBackEnergy::0        60074571735                       # Energy for active background per rank (pJ)
system.mem_ctrls1.actBackEnergy::1        59599372995                       # Energy for active background per rank (pJ)
system.mem_ctrls1.preBackEnergy::0        39584274750                       # Energy for precharge background per rank (pJ)
system.mem_ctrls1.preBackEnergy::1        40001115750                       # Energy for precharge background per rank (pJ)
system.mem_ctrls1.totalEnergy::0         113347511865                       # Total energy per rank (pJ)
system.mem_ctrls1.totalEnergy::1         113255500590                       # Total energy per rank (pJ)
system.mem_ctrls1.averagePower::0          736.969799                       # Core power per rank (mW)
system.mem_ctrls1.averagePower::1          736.371554                       # Core power per rank (mW)
system.mem_ctrls2.bytes_read::ruby.dir_cntrl2     24509056                       # Number of bytes read from this memory
system.mem_ctrls2.bytes_read::total          24509056                       # Number of bytes read from this memory
system.mem_ctrls2.bytes_written::ruby.dir_cntrl2     20686336                       # Number of bytes written to this memory
system.mem_ctrls2.bytes_written::total       20686336                       # Number of bytes written to this memory
system.mem_ctrls2.num_reads::ruby.dir_cntrl2       382954                       # Number of read requests responded to by this memory
system.mem_ctrls2.num_reads::total             382954                       # Number of read requests responded to by this memory
system.mem_ctrls2.num_writes::ruby.dir_cntrl2       323224                       # Number of write requests responded to by this memory
system.mem_ctrls2.num_writes::total            323224                       # Number of write requests responded to by this memory
system.mem_ctrls2.bw_read::ruby.dir_cntrl2    159348824                       # Total read bandwidth from this memory (bytes/s)
system.mem_ctrls2.bw_read::total            159348824                       # Total read bandwidth from this memory (bytes/s)
system.mem_ctrls2.bw_write::ruby.dir_cntrl2    134494912                       # Write bandwidth from this memory (bytes/s)
system.mem_ctrls2.bw_write::total           134494912                       # Write bandwidth from this memory (bytes/s)
system.mem_ctrls2.bw_total::ruby.dir_cntrl2    293843736                       # Total bandwidth to/from this memory (bytes/s)
system.mem_ctrls2.bw_total::total           293843736                       # Total bandwidth to/from this memory (bytes/s)
system.mem_ctrls2.readReqs                     382954                       # Number of read requests accepted
system.mem_ctrls2.writeReqs                    323224                       # Number of write requests accepted
system.mem_ctrls2.readBursts                   382954                       # Number of DRAM read bursts, including those serviced by the write queue
system.mem_ctrls2.writeBursts                  323224                       # Number of DRAM write bursts, including those merged in the write queue
system.mem_ctrls2.bytesReadDRAM              24507904                       # Total number of bytes read from DRAM
system.mem_ctrls2.bytesReadWrQ                   1152                       # Total number of bytes read from write queue
system.mem_ctrls2.bytesWritten               20686144                       # Total number of bytes written to DRAM
system.mem_ctrls2.bytesReadSys               24509056                       # Total read bytes from the system interface side
system.mem_ctrls2.bytesWrittenSys            20686336                       # Total written bytes from the system interface side
system.mem_ctrls2.servicedByWrQ                    18                       # Number of DRAM read bursts serviced by the write queue
system.mem_ctrls2.mergedWrBursts                    0                       # Number of DRAM write bursts merged with an existing one
system.mem_ctrls2.neitherReadNorWriteReqs            0                       # Number of requests that are neither read nor write
system.mem_ctrls2.perBankRdBursts::0            23639                       # Per bank write bursts
system.mem_ctrls2.perBankRdBursts::1            24299                       # Per bank write bursts
system.mem_ctrls2.perBankRdBursts::2            23934                       # Per bank write bursts
system.mem_ctrls2.perBankRdBursts::3            24276                       # Per bank write bursts
system.mem_ctrls2.perBankRdBursts::4            23867                       # Per bank write bursts
system.mem_ctrls2.perBankRdBursts::5            24154                       # Per bank write bursts
system.mem_ctrls2.perBankRdBursts::6            24230                       # Per bank write bursts
system.mem_ctrls2.perBankRdBursts::7            24028                       # Per bank write bursts
system.mem_ctrls2.perBankRdBursts::8            23897                       # Per bank write bursts
system.mem_ctrls2.perBankRdBursts::9            24046                       # Per bank write bursts
system.mem_ctrls2.perBankRdBursts::10           23815                       # Per bank write bursts
system.mem_ctrls2.perBankRdBursts::11           24323                       # Per bank write bursts
system.mem_ctrls2.perBankRdBursts::12           23625                       # Per bank write bursts
system.mem_ctrls2.perBankRdBursts::13           23435                       # Per bank write bursts
system.mem_ctrls2.perBankRdBursts::14           23589                       # Per bank write bursts
system.mem_ctrls2.perBankRdBursts::15           23779                       # Per bank write bursts
system.mem_ctrls2.perBankWrBursts::0            20220                       # Per bank write bursts
system.mem_ctrls2.perBankWrBursts::1            20113                       # Per bank write bursts
system.mem_ctrls2.perBankWrBursts::2            20143                       # Per bank write bursts
system.mem_ctrls2.perBankWrBursts::3            20423                       # Per bank write bursts
system.mem_ctrls2.perBankWrBursts::4            20060                       # Per bank write bursts
system.mem_ctrls2.perBankWrBursts::5            20331                       # Per bank write bursts
system.mem_ctrls2.perBankWrBursts::6            20348                       # Per bank write bursts
system.mem_ctrls2.perBankWrBursts::7            20322                       # Per bank write bursts
system.mem_ctrls2.perBankWrBursts::8            20402                       # Per bank write bursts
system.mem_ctrls2.perBankWrBursts::9            20222                       # Per bank write bursts
system.mem_ctrls2.perBankWrBursts::10           20111                       # Per bank write bursts
system.mem_ctrls2.perBankWrBursts::11           20167                       # Per bank write bursts
system.mem_ctrls2.perBankWrBursts::12           19917                       # Per bank write bursts
system.mem_ctrls2.perBankWrBursts::13           20185                       # Per bank write bursts
system.mem_ctrls2.perBankWrBursts::14           20160                       # Per bank write bursts
system.mem_ctrls2.perBankWrBursts::15           20097                       # Per bank write bursts
system.mem_ctrls2.numRdRetry                    87793                       # Number of times read queue was full causing retry
system.mem_ctrls2.numWrRetry                    13405                       # Number of times write queue was full causing retry
system.mem_ctrls2.totGap                 153806711000                       # Total gap between requests
system.mem_ctrls2.readPktSize::0                    0                       # Read request sizes (log2)
system.mem_ctrls2.readPktSize::1                    0                       # Read request sizes (log2)
system.mem_ctrls2.readPktSize::2                    0                       # Read request sizes (log2)
system.mem_ctrls2.readPktSize::3                    0                       # Read request sizes (log2)
system.mem_ctrls2.readPktSize::4                    0                       # Read request sizes (log2)
system.mem_ctrls2.readPktSize::5                    0                       # Read request sizes (log2)
system.mem_ctrls2.readPktSize::6               382954                       # Read request sizes (log2)
system.mem_ctrls2.writePktSize::0                   0                       # Write request sizes (log2)
system.mem_ctrls2.writePktSize::1                   0                       # Write request sizes (log2)
system.mem_ctrls2.writePktSize::2                   0                       # Write request sizes (log2)
system.mem_ctrls2.writePktSize::3                   0                       # Write request sizes (log2)
system.mem_ctrls2.writePktSize::4                   0                       # Write request sizes (log2)
system.mem_ctrls2.writePktSize::5                   0                       # Write request sizes (log2)
system.mem_ctrls2.writePktSize::6              323224                       # Write request sizes (log2)
system.mem_ctrls2.rdQLenPdf::0                 200644                       # What read queue length does an incoming req see
system.mem_ctrls2.rdQLenPdf::1                   1377                       # What read queue length does an incoming req see
system.mem_ctrls2.rdQLenPdf::2                   1148                       # What read queue length does an incoming req see
system.mem_ctrls2.rdQLenPdf::3                   1357                       # What read queue length does an incoming req see
system.mem_ctrls2.rdQLenPdf::4                   1546                       # What read queue length does an incoming req see
system.mem_ctrls2.rdQLenPdf::5                   1790                       # What read queue length does an incoming req see
system.mem_ctrls2.rdQLenPdf::6                   1919                       # What read queue length does an incoming req see
system.mem_ctrls2.rdQLenPdf::7                   2134                       # What read queue length does an incoming req see
system.mem_ctrls2.rdQLenPdf::8                   2188                       # What read queue length does an incoming req see
system.mem_ctrls2.rdQLenPdf::9                   2335                       # What read queue length does an incoming req see
system.mem_ctrls2.rdQLenPdf::10                  2383                       # What read queue length does an incoming req see
system.mem_ctrls2.rdQLenPdf::11                  2492                       # What read queue length does an incoming req see
system.mem_ctrls2.rdQLenPdf::12                  2499                       # What read queue length does an incoming req see
system.mem_ctrls2.rdQLenPdf::13                  2698                       # What read queue length does an incoming req see
system.mem_ctrls2.rdQLenPdf::14                  2729                       # What read queue length does an incoming req see
system.mem_ctrls2.rdQLenPdf::15                  2832                       # What read queue length does an incoming req see
system.mem_ctrls2.rdQLenPdf::16                  2961                       # What read queue length does an incoming req see
system.mem_ctrls2.rdQLenPdf::17                  3014                       # What read queue length does an incoming req see
system.mem_ctrls2.rdQLenPdf::18                  3177                       # What read queue length does an incoming req see
system.mem_ctrls2.rdQLenPdf::19                  3184                       # What read queue length does an incoming req see
system.mem_ctrls2.rdQLenPdf::20                  3248                       # What read queue length does an incoming req see
system.mem_ctrls2.rdQLenPdf::21                  3296                       # What read queue length does an incoming req see
system.mem_ctrls2.rdQLenPdf::22                  3337                       # What read queue length does an incoming req see
system.mem_ctrls2.rdQLenPdf::23                  3479                       # What read queue length does an incoming req see
system.mem_ctrls2.rdQLenPdf::24                  3548                       # What read queue length does an incoming req see
system.mem_ctrls2.rdQLenPdf::25                  3623                       # What read queue length does an incoming req see
system.mem_ctrls2.rdQLenPdf::26                  3869                       # What read queue length does an incoming req see
system.mem_ctrls2.rdQLenPdf::27                  4181                       # What read queue length does an incoming req see
system.mem_ctrls2.rdQLenPdf::28                  4537                       # What read queue length does an incoming req see
system.mem_ctrls2.rdQLenPdf::29                  4970                       # What read queue length does an incoming req see
system.mem_ctrls2.rdQLenPdf::30                  5598                       # What read queue length does an incoming req see
system.mem_ctrls2.rdQLenPdf::31                 94843                       # What read queue length does an incoming req see
system.mem_ctrls2.wrQLenPdf::0                  46731                       # What write queue length does an incoming req see
system.mem_ctrls2.wrQLenPdf::1                  50584                       # What write queue length does an incoming req see
system.mem_ctrls2.wrQLenPdf::2                  52364                       # What write queue length does an incoming req see
system.mem_ctrls2.wrQLenPdf::3                  53091                       # What write queue length does an incoming req see
system.mem_ctrls2.wrQLenPdf::4                  53811                       # What write queue length does an incoming req see
system.mem_ctrls2.wrQLenPdf::5                  16582                       # What write queue length does an incoming req see
system.mem_ctrls2.wrQLenPdf::6                  19804                       # What write queue length does an incoming req see
system.mem_ctrls2.wrQLenPdf::7                  30257                       # What write queue length does an incoming req see
system.mem_ctrls2.bytesPerActivate::samples       185413                       # Bytes accessed per row activation
system.mem_ctrls2.bytesPerActivate::mean   243.743513                       # Bytes accessed per row activation
system.mem_ctrls2.bytesPerActivate::gmean   192.623735                       # Bytes accessed per row activation
system.mem_ctrls2.bytesPerActivate::stdev   170.953050                       # Bytes accessed per row activation
system.mem_ctrls2.bytesPerActivate::0-127        38924     20.99%     20.99% # Bytes accessed per row activation
system.mem_ctrls2.bytesPerActivate::128-255        51747     27.91%     48.90% # Bytes accessed per row activation
system.mem_ctrls2.bytesPerActivate::256-383        70804     38.19%     87.09% # Bytes accessed per row activation
system.mem_ctrls2.bytesPerActivate::384-511        10534      5.68%     92.77% # Bytes accessed per row activation
system.mem_ctrls2.bytesPerActivate::512-639         6031      3.25%     96.02% # Bytes accessed per row activation
system.mem_ctrls2.bytesPerActivate::640-767         2794      1.51%     97.53% # Bytes accessed per row activation
system.mem_ctrls2.bytesPerActivate::768-895         1577      0.85%     98.38% # Bytes accessed per row activation
system.mem_ctrls2.bytesPerActivate::896-1023         1016      0.55%     98.93% # Bytes accessed per row activation
system.mem_ctrls2.bytesPerActivate::1024-1151         1986      1.07%    100.00% # Bytes accessed per row activation
system.mem_ctrls2.bytesPerActivate::total       185413                       # Bytes accessed per row activation
system.mem_ctrls2.rdPerTurnAround::samples        48527                       # Reads before turning the bus around for writes
system.mem_ctrls2.rdPerTurnAround::mean      7.891112                       # Reads before turning the bus around for writes
system.mem_ctrls2.rdPerTurnAround::stdev    15.682032                       # Reads before turning the bus around for writes
system.mem_ctrls2.rdPerTurnAround::0-127        48521     99.99%     99.99% # Reads before turning the bus around for writes
system.mem_ctrls2.rdPerTurnAround::128-255            4      0.01%    100.00% # Reads before turning the bus around for writes
system.mem_ctrls2.rdPerTurnAround::1152-1279            1      0.00%    100.00% # Reads before turning the bus around for writes
system.mem_ctrls2.rdPerTurnAround::2816-2943            1      0.00%    100.00% # Reads before turning the bus around for writes
system.mem_ctrls2.rdPerTurnAround::total        48527                       # Reads before turning the bus around for writes
system.mem_ctrls2.wrPerTurnAround::samples        48527                       # Writes before turning the bus around for reads
system.mem_ctrls2.wrPerTurnAround::mean      6.660643                       # Writes before turning the bus around for reads
system.mem_ctrls2.wrPerTurnAround::gmean     6.073077                       # Writes before turning the bus around for reads
system.mem_ctrls2.wrPerTurnAround::stdev     3.449512                       # Writes before turning the bus around for reads
system.mem_ctrls2.wrPerTurnAround::4-7          38653     79.65%     79.65% # Writes before turning the bus around for reads
system.mem_ctrls2.wrPerTurnAround::8-11          3018      6.22%     85.87% # Writes before turning the bus around for reads
system.mem_ctrls2.wrPerTurnAround::12-15         4051      8.35%     94.22% # Writes before turning the bus around for reads
system.mem_ctrls2.wrPerTurnAround::16-19         2805      5.78%    100.00% # Writes before turning the bus around for reads
system.mem_ctrls2.wrPerTurnAround::total        48527                       # Writes before turning the bus around for reads
system.mem_ctrls2.totQLat                 57746205047                       # Total ticks spent queuing
system.mem_ctrls2.totMemAccLat            64926255047                       # Total ticks spent from burst creation until serviced by the DRAM
system.mem_ctrls2.totBusLat                1914680000                       # Total ticks spent in databus transfers
system.mem_ctrls2.avgQLat                   150798.58                       # Average queueing delay per DRAM burst
system.mem_ctrls2.avgBusLat                   5000.00                       # Average bus latency per DRAM burst
system.mem_ctrls2.avgMemAccLat              169548.58                       # Average memory access latency per DRAM burst
system.mem_ctrls2.avgRdBW                      159.34                       # Average DRAM read bandwidth in MiByte/s
system.mem_ctrls2.avgWrBW                      134.49                       # Average achieved write bandwidth in MiByte/s
system.mem_ctrls2.avgRdBWSys                   159.35                       # Average system read bandwidth in MiByte/s
system.mem_ctrls2.avgWrBWSys                   134.49                       # Average system write bandwidth in MiByte/s
system.mem_ctrls2.peakBW                     12800.00                       # Theoretical peak bandwidth in MiByte/s
system.mem_ctrls2.busUtil                        2.30                       # Data bus utilization in percentage
system.mem_ctrls2.busUtilRead                    1.24                       # Data bus utilization in percentage for reads
system.mem_ctrls2.busUtilWrite                   1.05                       # Data bus utilization in percentage for writes
system.mem_ctrls2.avgRdQLen                      1.38                       # Average read queue length when enqueuing
system.mem_ctrls2.avgWrQLen                      3.01                       # Average write queue length when enqueuing
system.mem_ctrls2.readRowHits                  291847                       # Number of row buffer hits during reads
system.mem_ctrls2.writeRowHits                 228886                       # Number of row buffer hits during writes
system.mem_ctrls2.readRowHitRate                76.21                       # Row buffer hit rate for reads
system.mem_ctrls2.writeRowHitRate               70.81                       # Row buffer hit rate for writes
system.mem_ctrls2.avgGap                    217801.62                       # Average gap between requests
system.mem_ctrls2.pageHitRate                   73.74                       # Row buffer hit rate, read and write combined
system.mem_ctrls2.memoryStateTime::IDLE   27138611750                       # Time in different power states
system.mem_ctrls2.memoryStateTime::REF     5135780000                       # Time in different power states
system.mem_ctrls2.memoryStateTime::PRE_PDN            0                       # Time in different power states
system.mem_ctrls2.memoryStateTime::ACT   121527704250                       # Time in different power states
system.mem_ctrls2.memoryStateTime::ACT_PDN            0                       # Time in different power states
system.mem_ctrls2.actEnergy::0              706965840                       # Energy for activate commands per rank (pJ)
system.mem_ctrls2.actEnergy::1              694620360                       # Energy for activate commands per rank (pJ)
system.mem_ctrls2.preEnergy::0              385745250                       # Energy for precharge commands per rank (pJ)
system.mem_ctrls2.preEnergy::1              379009125                       # Energy for precharge commands per rank (pJ)
system.mem_ctrls2.readEnergy::0            1500595200                       # Energy for read commands per rank (pJ)
system.mem_ctrls2.readEnergy::1            1485923400                       # Energy for read commands per rank (pJ)
system.mem_ctrls2.writeEnergy::0           1049377680                       # Energy for write commands per rank (pJ)
system.mem_ctrls2.writeEnergy::1           1044802800                       # Energy for write commands per rank (pJ)
system.mem_ctrls2.refreshEnergy::0        10045585680                       # Energy for refresh commands per rank (pJ)
system.mem_ctrls2.refreshEnergy::1        10045585680                       # Energy for refresh commands per rank (pJ)
system.mem_ctrls2.actBackEnergy::0        59652270990                       # Energy for active background per rank (pJ)
system.mem_ctrls2.actBackEnergy::1        59189267115                       # Energy for active background per rank (pJ)
system.mem_ctrls2.preBackEnergy::0        39954696000                       # Energy for precharge background per rank (pJ)
system.mem_ctrls2.preBackEnergy::1        40360839750                       # Energy for precharge background per rank (pJ)
system.mem_ctrls2.totalEnergy::0         113295236640                       # Total energy per rank (pJ)
system.mem_ctrls2.totalEnergy::1         113200048230                       # Total energy per rank (pJ)
system.mem_ctrls2.averagePower::0          736.630056                       # Core power per rank (mW)
system.mem_ctrls2.averagePower::1          736.011154                       # Core power per rank (mW)
system.mem_ctrls3.bytes_read::ruby.dir_cntrl3     24489088                       # Number of bytes read from this memory
system.mem_ctrls3.bytes_read::total          24489088                       # Number of bytes read from this memory
system.mem_ctrls3.bytes_written::ruby.dir_cntrl3     20684096                       # Number of bytes written to this memory
system.mem_ctrls3.bytes_written::total       20684096                       # Number of bytes written to this memory
system.mem_ctrls3.num_reads::ruby.dir_cntrl3       382642                       # Number of read requests responded to by this memory
system.mem_ctrls3.num_reads::total             382642                       # Number of read requests responded to by this memory
system.mem_ctrls3.num_writes::ruby.dir_cntrl3       323189                       # Number of write requests responded to by this memory
system.mem_ctrls3.num_writes::total            323189                       # Number of write requests responded to by this memory
system.mem_ctrls3.bw_read::ruby.dir_cntrl3    159219000                       # Total read bandwidth from this memory (bytes/s)
system.mem_ctrls3.bw_read::total            159219000                       # Total read bandwidth from this memory (bytes/s)
system.mem_ctrls3.bw_write::ruby.dir_cntrl3    134480348                       # Write bandwidth from this memory (bytes/s)
system.mem_ctrls3.bw_write::total           134480348                       # Write bandwidth from this memory (bytes/s)
system.mem_ctrls3.bw_total::ruby.dir_cntrl3    293699348                       # Total bandwidth to/from this memory (bytes/s)
system.mem_ctrls3.bw_total::total           293699348                       # Total bandwidth to/from this memory (bytes/s)
system.mem_ctrls3.readReqs                     382642                       # Number of read requests accepted
system.mem_ctrls3.writeReqs                    323189                       # Number of write requests accepted
system.mem_ctrls3.readBursts                   382642                       # Number of DRAM read bursts, including those serviced by the write queue
system.mem_ctrls3.writeBursts                  323189                       # Number of DRAM write bursts, including those merged in the write queue
system.mem_ctrls3.bytesReadDRAM              24488448                       # Total number of bytes read from DRAM
system.mem_ctrls3.bytesReadWrQ                    640                       # Total number of bytes read from write queue
system.mem_ctrls3.bytesWritten               20683904                       # Total number of bytes written to DRAM
system.mem_ctrls3.bytesReadSys               24489088                       # Total read bytes from the system interface side
system.mem_ctrls3.bytesWrittenSys            20684096                       # Total written bytes from the system interface side
system.mem_ctrls3.servicedByWrQ                    10                       # Number of DRAM read bursts serviced by the write queue
system.mem_ctrls3.mergedWrBursts                    0                       # Number of DRAM write bursts merged with an existing one
system.mem_ctrls3.neitherReadNorWriteReqs            0                       # Number of requests that are neither read nor write
system.mem_ctrls3.perBankRdBursts::0            23629                       # Per bank write bursts
system.mem_ctrls3.perBankRdBursts::1            24296                       # Per bank write bursts
system.mem_ctrls3.perBankRdBursts::2            23812                       # Per bank write bursts
system.mem_ctrls3.perBankRdBursts::3            24239                       # Per bank write bursts
system.mem_ctrls3.perBankRdBursts::4            23815                       # Per bank write bursts
system.mem_ctrls3.perBankRdBursts::5            24164                       # Per bank write bursts
system.mem_ctrls3.perBankRdBursts::6            24224                       # Per bank write bursts
system.mem_ctrls3.perBankRdBursts::7            24029                       # Per bank write bursts
system.mem_ctrls3.perBankRdBursts::8            23882                       # Per bank write bursts
system.mem_ctrls3.perBankRdBursts::9            24025                       # Per bank write bursts
system.mem_ctrls3.perBankRdBursts::10           23881                       # Per bank write bursts
system.mem_ctrls3.perBankRdBursts::11           24275                       # Per bank write bursts
system.mem_ctrls3.perBankRdBursts::12           23558                       # Per bank write bursts
system.mem_ctrls3.perBankRdBursts::13           23445                       # Per bank write bursts
system.mem_ctrls3.perBankRdBursts::14           23607                       # Per bank write bursts
system.mem_ctrls3.perBankRdBursts::15           23751                       # Per bank write bursts
system.mem_ctrls3.perBankWrBursts::0            20222                       # Per bank write bursts
system.mem_ctrls3.perBankWrBursts::1            20109                       # Per bank write bursts
system.mem_ctrls3.perBankWrBursts::2            20146                       # Per bank write bursts
system.mem_ctrls3.perBankWrBursts::3            20412                       # Per bank write bursts
system.mem_ctrls3.perBankWrBursts::4            20054                       # Per bank write bursts
system.mem_ctrls3.perBankWrBursts::5            20333                       # Per bank write bursts
system.mem_ctrls3.perBankWrBursts::6            20348                       # Per bank write bursts
system.mem_ctrls3.perBankWrBursts::7            20311                       # Per bank write bursts
system.mem_ctrls3.perBankWrBursts::8            20397                       # Per bank write bursts
system.mem_ctrls3.perBankWrBursts::9            20221                       # Per bank write bursts
system.mem_ctrls3.perBankWrBursts::10           20113                       # Per bank write bursts
system.mem_ctrls3.perBankWrBursts::11           20176                       # Per bank write bursts
system.mem_ctrls3.perBankWrBursts::12           19916                       # Per bank write bursts
system.mem_ctrls3.perBankWrBursts::13           20191                       # Per bank write bursts
system.mem_ctrls3.perBankWrBursts::14           20162                       # Per bank write bursts
system.mem_ctrls3.perBankWrBursts::15           20075                       # Per bank write bursts
system.mem_ctrls3.numRdRetry                    84697                       # Number of times read queue was full causing retry
system.mem_ctrls3.numWrRetry                    12928                       # Number of times write queue was full causing retry
system.mem_ctrls3.totGap                 153806450000                       # Total gap between requests
system.mem_ctrls3.readPktSize::0                    0                       # Read request sizes (log2)
system.mem_ctrls3.readPktSize::1                    0                       # Read request sizes (log2)
system.mem_ctrls3.readPktSize::2                    0                       # Read request sizes (log2)
system.mem_ctrls3.readPktSize::3                    0                       # Read request sizes (log2)
system.mem_ctrls3.readPktSize::4                    0                       # Read request sizes (log2)
system.mem_ctrls3.readPktSize::5                    0                       # Read request sizes (log2)
system.mem_ctrls3.readPktSize::6               382642                       # Read request sizes (log2)
system.mem_ctrls3.writePktSize::0                   0                       # Write request sizes (log2)
system.mem_ctrls3.writePktSize::1                   0                       # Write request sizes (log2)
system.mem_ctrls3.writePktSize::2                   0                       # Write request sizes (log2)
system.mem_ctrls3.writePktSize::3                   0                       # Write request sizes (log2)
system.mem_ctrls3.writePktSize::4                   0                       # Write request sizes (log2)
system.mem_ctrls3.writePktSize::5                   0                       # Write request sizes (log2)
system.mem_ctrls3.writePktSize::6              323189                       # Write request sizes (log2)
system.mem_ctrls3.rdQLenPdf::0                 200270                       # What read queue length does an incoming req see
system.mem_ctrls3.rdQLenPdf::1                   1400                       # What read queue length does an incoming req see
system.mem_ctrls3.rdQLenPdf::2                   1109                       # What read queue length does an incoming req see
system.mem_ctrls3.rdQLenPdf::3                   1343                       # What read queue length does an incoming req see
system.mem_ctrls3.rdQLenPdf::4                   1575                       # What read queue length does an incoming req see
system.mem_ctrls3.rdQLenPdf::5                   1843                       # What read queue length does an incoming req see
system.mem_ctrls3.rdQLenPdf::6                   2052                       # What read queue length does an incoming req see
system.mem_ctrls3.rdQLenPdf::7                   2168                       # What read queue length does an incoming req see
system.mem_ctrls3.rdQLenPdf::8                   2340                       # What read queue length does an incoming req see
system.mem_ctrls3.rdQLenPdf::9                   2451                       # What read queue length does an incoming req see
system.mem_ctrls3.rdQLenPdf::10                  2496                       # What read queue length does an incoming req see
system.mem_ctrls3.rdQLenPdf::11                  2564                       # What read queue length does an incoming req see
system.mem_ctrls3.rdQLenPdf::12                  2634                       # What read queue length does an incoming req see
system.mem_ctrls3.rdQLenPdf::13                  2786                       # What read queue length does an incoming req see
system.mem_ctrls3.rdQLenPdf::14                  2809                       # What read queue length does an incoming req see
system.mem_ctrls3.rdQLenPdf::15                  2848                       # What read queue length does an incoming req see
system.mem_ctrls3.rdQLenPdf::16                  2922                       # What read queue length does an incoming req see
system.mem_ctrls3.rdQLenPdf::17                  3013                       # What read queue length does an incoming req see
system.mem_ctrls3.rdQLenPdf::18                  3130                       # What read queue length does an incoming req see
system.mem_ctrls3.rdQLenPdf::19                  3283                       # What read queue length does an incoming req see
system.mem_ctrls3.rdQLenPdf::20                  3461                       # What read queue length does an incoming req see
system.mem_ctrls3.rdQLenPdf::21                  3584                       # What read queue length does an incoming req see
system.mem_ctrls3.rdQLenPdf::22                  3553                       # What read queue length does an incoming req see
system.mem_ctrls3.rdQLenPdf::23                  3559                       # What read queue length does an incoming req see
system.mem_ctrls3.rdQLenPdf::24                  3742                       # What read queue length does an incoming req see
[...]
system.ruby.L2Cache_Controller.S_I.Ack_all::total           14                      
system.ruby.L2Cache_Controller.ISS.L1_GETS |           2    100.00%    100.00% |           0      0.00%    100.00% |           0      0.00%    100.00% |           0      0.00%    100.00% |           0      0.00%    100.00% |           0      0.00%    100.00% |           0      0.00%    100.00% |           0      0.00%    100.00% |           0      0.00%    100.00% |           0      0.00%    100.00% |           0      0.00%    100.00% |           0      0.00%    100.00% |           0      0.00%    100.00% |           0      0.00%    100.00% |           0      0.00%    100.00% |           0      0.00%    100.00% |           0      0.00%    100.00% |           0      0.00%    100.00% |           0      0.00%    100.00% |           0      0.00%    100.00% |           0      0.00%    100.00% |           0      0.00%    100.00% |           0      0.00%    100.00% |           0      0.00%    100.00% |           0      0.00%    100.00% |           0      0.00%    100.00% |           0      0.00%    100.00% |           0      0.00%    100.00% |           0      0.00%    100.00% |           0      0.00%    100.00% |           0      0.00%    100.00% |           0      0.00%    100.00%
system.ruby.L2Cache_Controller.ISS.L1_GETS::total            2                      
system.ruby.L2Cache_Controller.ISS.Mem_Data |       18682      7.93%      7.93% |        7080      3.00%     10.93% |        7082      3.00%     13.93% |        7029      2.98%     16.92% |        7002      2.97%     19.89% |        6980      2.96%     22.85% |        6997      2.97%     25.82% |        6992      2.97%     28.78% |        7030      2.98%     31.77% |        7033      2.98%     34.75% |        7063      3.00%     37.75% |        6988      2.96%     40.71% |        6994      2.97%     43.68% |        6995      2.97%     46.65% |        6994      2.97%     49.61% |        6959      2.95%     52.57% |        6997      2.97%     55.54% |        6974      2.96%     58.49% |        7005      2.97%     61.47% |        6983      2.96%     64.43% |        6980      2.96%     67.39% |        6967      2.96%     70.35% |        6990      2.97%     73.31% |        6984      2.96%     76.28% |        7004      2.97%     79.25% |        7004      2.97%     82.22% |        6984      2.96%     85.18% |        6962      2.95%     88.14% |        7004      2.97%     91.11% |        6984      2.96%     94.07% |        6959      2.95%     97.02% |        7017      2.98%    100.00%
system.ruby.L2Cache_Controller.ISS.Mem_Data::total       235698                      
system.ruby.L2Cache_Controller.IS.Mem_Data |         543      3.27%      3.27% |         471      2.83%      6.10% |         464      2.79%      8.89% |         465      2.80%     11.69% |         512      3.08%     14.77% |         467      2.81%     17.58% |         505      3.04%     20.62% |         529      3.18%     23.81% |         548      3.30%     27.10% |         487      2.93%     30.03% |         533      3.21%     33.24% |         566      3.41%     36.65% |         618      3.72%     40.37% |         562      3.38%     43.75% |         579      3.48%     47.23% |         523      3.15%     50.38% |         534      3.21%     53.59% |         569      3.42%     57.02% |         562      3.38%     60.40% |         509      3.06%     63.46% |         502      3.02%     66.48% |         520      3.13%     69.61% |         480      2.89%     72.50% |         468      2.82%     75.32% |         546      3.29%     78.60% |         592      3.56%     82.16% |         532      3.20%     85.37% |         479      2.88%     88.25% |         489      2.94%     91.19% |         510      3.07%     94.26% |         489      2.94%     97.20% |         465      2.80%    100.00%
system.ruby.L2Cache_Controller.IS.Mem_Data::total        16618                      
system.ruby.L2Cache_Controller.IM.Mem_Data |       40406      3.13%      3.13% |       40329      3.12%      6.25% |       40341      3.12%      9.38% |       40347      3.13%     12.50% |       40353      3.13%     15.63% |       40366      3.13%     18.76% |       40339      3.12%     21.88% |       40336      3.12%     25.00% |       40349      3.13%     28.13% |       40344      3.12%     31.25% |       40329      3.12%     34.38% |       40358      3.13%     37.50% |       40339      3.12%     40.63% |       40338      3.12%     43.75% |       40341      3.12%     46.88% |       40330      3.12%     50.00% |       40352      3.13%     53.13% |       40351      3.13%     56.25% |       40349      3.13%     59.38% |       40345      3.12%     62.50% |       40340      3.12%     65.63% |       40354      3.13%     68.75% |       40339      3.12%     71.88% |       40341      3.12%     75.00% |       40347      3.13%     78.13% |       40345      3.12%     81.25% |       40349      3.13%     84.38% |       40336      3.12%     87.50% |       40336      3.12%     90.63% |       40337      3.12%     93.75% |       40349      3.13%     96.88% |       40331      3.12%    100.00%
system.ruby.L2Cache_Controller.IM.Mem_Data::total      1291046                      
system.ruby.L2Cache_Controller.SS_MB.Exclusive_Unblock |           4      8.89%      8.89% |           6     13.33%     22.22% |           2      4.44%     26.67% |           6     13.33%     40.00% |           1      2.22%     42.22% |           0      0.00%     42.22% |           1      2.22%     44.44% |           0      0.00%     44.44% |           0      0.00%     44.44% |           1      2.22%     46.67% |           1      2.22%     48.89% |           0      0.00%     48.89% |           4      8.89%     57.78% |           0      0.00%     57.78% |           3      6.67%     64.44% |           0      0.00%     64.44% |           0      0.00%     64.44% |           0      0.00%     64.44% |           9     20.00%     84.44% |           0      0.00%     84.44% |           0      0.00%     84.44% |           0      0.00%     84.44% |           0      0.00%     84.44% |           0      0.00%     84.44% |           1      2.22%     86.67% |           2      4.44%     91.11% |           1      2.22%     93.33% |           1      2.22%     95.56% |           0      0.00%     95.56% |           1      2.22%     97.78% |           1      2.22%    100.00% |           0      0.00%    100.00%
system.ruby.L2Cache_Controller.SS_MB.Exclusive_Unblock::total           45                      
system.ruby.L2Cache_Controller.MT_MB.L1_PUTX |           2    100.00%    100.00% |           0      0.00%    100.00% |           0      0.00%    100.00% |           0      0.00%    100.00% |           0      0.00%    100.00% |           0      0.00%    100.00% |           0      0.00%    100.00% |           0      0.00%    100.00% |           0      0.00%    100.00% |           0      0.00%    100.00% |           0      0.00%    100.00% |           0      0.00%    100.00% |           0      0.00%    100.00% |           0      0.00%    100.00% |           0      0.00%    100.00% |           0      0.00%    100.00% |           0      0.00%    100.00% |           0      0.00%    100.00% |           0      0.00%    100.00% |           0      0.00%    100.00% |           0      0.00%    100.00% |           0      0.00%    100.00% |           0      0.00%    100.00% |           0      0.00%    100.00% |           0      0.00%    100.00% |           0      0.00%    100.00% |           0      0.00%    100.00% |           0      0.00%    100.00% |           0      0.00%    100.00% |           0      0.00%    100.00% |           0      0.00%    100.00% |           0      0.00%    100.00%
system.ruby.L2Cache_Controller.MT_MB.L1_PUTX::total            2                      
system.ruby.L2Cache_Controller.MT_MB.Exclusive_Unblock |      173258      8.49%      8.49% |       64257      3.15%     11.63% |       58751      2.88%     14.51% |       58457      2.86%     17.38% |       57800      2.83%     20.21% |       56502      2.77%     22.98% |       55007      2.69%     25.67% |       55303      2.71%     28.38% |       59156      2.90%     31.28% |       57720      2.83%     34.10% |       60644      2.97%     37.08% |       60209      2.95%     40.02% |       56860      2.79%     42.81% |       56796      2.78%     45.59% |       56447      2.77%     48.36% |       56868      2.79%     51.14% |       59188      2.90%     54.04% |       58515      2.87%     56.91% |       59886      2.93%     59.84% |       60877      2.98%     62.82% |       60907      2.98%     65.81% |       63096      3.09%     68.90% |       64325      3.15%     72.05% |       60549      2.97%     75.02% |       61102      2.99%     78.01% |       62470      3.06%     81.07% |       60797      2.98%     84.05% |       61419      3.01%     87.06% |       64093      3.14%     90.20% |       61915      3.03%     93.23% |       70024      3.43%     96.66% |       68215      3.34%    100.00%
system.ruby.L2Cache_Controller.MT_MB.Exclusive_Unblock::total      2041413                      
system.ruby.L2Cache_Controller.MT_IIB.L1_PUTX |           1    100.00%    100.00% |           0      0.00%    100.00% |           0      0.00%    100.00% |           0      0.00%    100.00% |           0      0.00%    100.00% |           0      0.00%    100.00% |           0      0.00%    100.00% |           0      0.00%    100.00% |           0      0.00%    100.00% |           0      0.00%    100.00% |           0      0.00%    100.00% |           0      0.00%    100.00% |           0      0.00%    100.00% |           0      0.00%    100.00% |           0      0.00%    100.00% |           0      0.00%    100.00% |           0      0.00%    100.00% |           0      0.00%    100.00% |           0      0.00%    100.00% |           0      0.00%    100.00% |           0      0.00%    100.00% |           0      0.00%    100.00% |           0      0.00%    100.00% |           0      0.00%    100.00% |           0      0.00%    100.00% |           0      0.00%    100.00% |           0      0.00%    100.00% |           0      0.00%    100.00% |           0      0.00%    100.00% |           0      0.00%    100.00% |           0      0.00%    100.00% |           0      0.00%    100.00%
system.ruby.L2Cache_Controller.MT_IIB.L1_PUTX::total            1                      
system.ruby.L2Cache_Controller.MT_IIB.WB_Data |           0      0.00%      0.00% |           0      0.00%      0.00% |           0      0.00%      0.00% |           0      0.00%      0.00% |           0      0.00%      0.00% |           1     50.00%     50.00% |           0      0.00%     50.00% |           0      0.00%     50.00% |           0      0.00%     50.00% |           0      0.00%     50.00% |           0      0.00%     50.00% |           0      0.00%     50.00% |           0      0.00%     50.00% |           0      0.00%     50.00% |           0      0.00%     50.00% |           0      0.00%     50.00% |           0      0.00%     50.00% |           0      0.00%     50.00% |           0      0.00%     50.00% |           0      0.00%     50.00% |           0      0.00%     50.00% |           0      0.00%     50.00% |           0      0.00%     50.00% |           0      0.00%     50.00% |           0      0.00%     50.00% |           0      0.00%     50.00% |           0      0.00%     50.00% |           0      0.00%     50.00% |           1     50.00%    100.00% |           0      0.00%    100.00% |           0      0.00%    100.00% |           0      0.00%    100.00%
system.ruby.L2Cache_Controller.MT_IIB.WB_Data::total            2                      
system.ruby.L2Cache_Controller.MT_IIB.WB_Data_clean |          12    100.00%    100.00% |           0      0.00%    100.00% |           0      0.00%    100.00% |           0      0.00%    100.00% |           0      0.00%    100.00% |           0      0.00%    100.00% |           0      0.00%    100.00% |           0      0.00%    100.00% |           0      0.00%    100.00% |           0      0.00%    100.00% |           0      0.00%    100.00% |           0      0.00%    100.00% |           0      0.00%    100.00% |           0      0.00%    100.00% |           0      0.00%    100.00% |           0      0.00%    100.00% |           0      0.00%    100.00% |           0      0.00%    100.00% |           0      0.00%    100.00% |           0      0.00%    100.00% |           0      0.00%    100.00% |           0      0.00%    100.00% |           0      0.00%    100.00% |           0      0.00%    100.00% |           0      0.00%    100.00% |           0      0.00%    100.00% |           0      0.00%    100.00% |           0      0.00%    100.00% |           0      0.00%    100.00% |           0      0.00%    100.00% |           0      0.00%    100.00% |           0      0.00%    100.00%
system.ruby.L2Cache_Controller.MT_IIB.WB_Data_clean::total           12                      
system.ruby.L2Cache_Controller.MT_SB.Unblock |          12     85.71%     85.71% |           0      0.00%     85.71% |           0      0.00%     85.71% |           0      0.00%     85.71% |           0      0.00%     85.71% |           1      7.14%     92.86% |           0      0.00%     92.86% |           0      0.00%     92.86% |           0      0.00%     92.86% |           0      0.00%     92.86% |           0      0.00%     92.86% |           0      0.00%     92.86% |           0      0.00%     92.86% |           0      0.00%     92.86% |           0      0.00%     92.86% |           0      0.00%     92.86% |           0      0.00%     92.86% |           0      0.00%     92.86% |           0      0.00%     92.86% |           0      0.00%     92.86% |           0      0.00%     92.86% |           0      0.00%     92.86% |           0      0.00%     92.86% |           0      0.00%     92.86% |           0      0.00%     92.86% |           0      0.00%     92.86% |           0      0.00%     92.86% |           0      0.00%     92.86% |           1      7.14%    100.00% |           0      0.00%    100.00% |           0      0.00%    100.00% |           0      0.00%    100.00%
system.ruby.L2Cache_Controller.MT_SB.Unblock::total           14                      
system.ruby.SimicsNetworkPortInterface_Controller.MessageSend |      109254     21.22%     21.22% |      257372     50.00%     71.22% |       18898      3.67%     74.90% |       19957      3.88%     78.77% |       17846      3.47%     82.24% |       19906      3.87%     86.11% |       18680      3.63%     89.74% |       19368      3.76%     93.50% |       16064      3.12%     96.62% |       17399      3.38%    100.00% |           0      0.00%    100.00% |           0      0.00%    100.00% |           0      0.00%    100.00% |           0      0.00%    100.00% |           0      0.00%    100.00% |           0      0.00%    100.00% |           0      0.00%    100.00% |           0      0.00%    100.00% |           0      0.00%    100.00% |           0      0.00%    100.00% |           0      0.00%    100.00% |           0      0.00%    100.00% |           0      0.00%    100.00% |           0      0.00%    100.00% |           0      0.00%    100.00% |           0      0.00%    100.00% |           0      0.00%    100.00% |           0      0.00%    100.00% |           0      0.00%    100.00% |           0      0.00%    100.00% |           0      0.00%    100.00% |           0      0.00%    100.00%
system.ruby.SimicsNetworkPortInterface_Controller.MessageSend::total       514744                      
system.ruby.SimicsNetworkPortInterface_Controller.MessageRecv |      109254     21.22%     21.22% |      257372     50.00%     71.22% |       18898      3.67%     74.90% |       19957      3.88%     78.77% |       17846      3.47%     82.24% |       19906      3.87%     86.11% |       18680      3.63%     89.74% |       19368      3.76%     93.50% |       16064      3.12%     96.62% |       17399      3.38%    100.00% |           0      0.00%    100.00% |           0      0.00%    100.00% |           0      0.00%    100.00% |           0      0.00%    100.00% |           0      0.00%    100.00% |           0      0.00%    100.00% |           0      0.00%    100.00% |           0      0.00%    100.00% |           0      0.00%    100.00% |           0      0.00%    100.00% |           0      0.00%    100.00% |           0      0.00%    100.00% |           0      0.00%    100.00% |           0      0.00%    100.00% |           0      0.00%    100.00% |           0      0.00%    100.00% |           0      0.00%    100.00% |           0      0.00%    100.00% |           0      0.00%    100.00% |           0      0.00%    100.00% |           0      0.00%    100.00% |           0      0.00%    100.00%
system.ruby.SimicsNetworkPortInterface_Controller.MessageRecv::total       514744                      
system.ruby.SimicsNetworkPortInterface_Controller.A.MessageSend |      109254     21.22%     21.22% |      257372     50.00%     71.22% |       18898      3.67%     74.90% |       19957      3.88%     78.77% |       17846      3.47%     82.24% |       19906      3.87%     86.11% |       18680      3.63%     89.74% |       19368      3.76%     93.50% |       16064      3.12%     96.62% |       17399      3.38%    100.00% |           0      0.00%    100.00% |           0      0.00%    100.00% |           0      0.00%    100.00% |           0      0.00%    100.00% |           0      0.00%    100.00% |           0      0.00%    100.00% |           0      0.00%    100.00% |           0      0.00%    100.00% |           0      0.00%    100.00% |           0      0.00%    100.00% |           0      0.00%    100.00% |           0      0.00%    100.00% |           0      0.00%    100.00% |           0      0.00%    100.00% |           0      0.00%    100.00% |           0      0.00%    100.00% |           0      0.00%    100.00% |           0      0.00%    100.00% |           0      0.00%    100.00% |           0      0.00%    100.00% |           0      0.00%    100.00% |           0      0.00%    100.00%
system.ruby.SimicsNetworkPortInterface_Controller.A.MessageSend::total       514744                      
system.ruby.SimicsNetworkPortInterface_Controller.A.MessageRecv |      109254     21.22%     21.22% |      257372     50.00%     71.22% |       18898      3.67%     74.90% |       19957      3.88%     78.77% |       17846      3.47%     82.24% |       19906      3.87%     86.11% |       18680      3.63%     89.74% |       19368      3.76%     93.50% |       16064      3.12%     96.62% |       17399      3.38%    100.00% |           0      0.00%    100.00% |           0      0.00%    100.00% |           0      0.00%    100.00% |           0      0.00%    100.00% |           0      0.00%    100.00% |           0      0.00%    100.00% |           0      0.00%    100.00% |           0      0.00%    100.00% |           0      0.00%    100.00% |           0      0.00%    100.00% |           0      0.00%    100.00% |           0      0.00%    100.00% |           0      0.00%    100.00% |           0      0.00%    100.00% |           0      0.00%    100.00% |           0      0.00%    100.00% |           0      0.00%    100.00% |           0      0.00%    100.00% |           0      0.00%    100.00% |           0      0.00%    100.00% |           0      0.00%    100.00% |           0      0.00%    100.00%
system.ruby.SimicsNetworkPortInterface_Controller.A.MessageRecv::total       514744                      
system.switch_cpus.kern.inst.arm                    0                       # number of arm instructions executed
system.switch_cpus.kern.inst.quiesce                0                       # number of quiesce instructions executed

---------- End Simulation Statistics   ----------
