
---------- Begin Simulation Statistics ----------
sim_seconds                                  0.035832                       # Number of seconds simulated
sim_ticks                                 35831631000                       # Number of ticks simulated
final_tick                               5211999709500                       # Number of ticks from beginning of simulation (restored from checkpoints and never reset)
sim_freq                                 1000000000000                       # Frequency of simulated ticks
host_inst_rate                                  29124                       # Simulator instruction rate (inst/s)
host_op_rate                                    53248                       # Simulator op (including micro ops) rate (op/s)
host_tick_rate                               48125570                       # Simulator tick rate (ticks/s)
host_mem_usage                                4747236                       # Number of bytes of host memory used
host_seconds                                   744.54                       # Real time elapsed on the host
sim_insts                                    21683750                       # Number of instructions simulated
sim_ops                                      39645686                       # Number of ops (including micro ops) simulated
system.voltage_domain.voltage                       1                       # Voltage in Volts
system.clk_domain.clock                           500                       # Clock period in ticks
system.mem_ctrls0.bytes_read::ruby.dir_cntrl0      4965248                       # Number of bytes read from this memory
system.mem_ctrls0.bytes_read::total           4965248                       # Number of bytes read from this memory
system.mem_ctrls0.bytes_written::ruby.dir_cntrl0      3962112                       # Number of bytes written to this memory
system.mem_ctrls0.bytes_written::total        3962112                       # Number of bytes written to this memory
system.mem_ctrls0.num_reads::ruby.dir_cntrl0        77582                       # Number of read requests responded to by this memory
system.mem_ctrls0.num_reads::total              77582                       # Number of read requests responded to by this memory
system.mem_ctrls0.num_writes::ruby.dir_cntrl0        61908                       # Number of write requests responded to by this memory
system.mem_ctrls0.num_writes::total             61908                       # Number of write requests responded to by this memory
system.mem_ctrls0.bw_read::ruby.dir_cntrl0    138571644                       # Total read bandwidth from this memory (bytes/s)
system.mem_ctrls0.bw_read::total            138571644                       # Total read bandwidth from this memory (bytes/s)
system.mem_ctrls0.bw_write::ruby.dir_cntrl0    110575821                       # Write bandwidth from this memory (bytes/s)
system.mem_ctrls0.bw_write::total           110575821                       # Write bandwidth from this memory (bytes/s)
system.mem_ctrls0.bw_total::ruby.dir_cntrl0    249147464                       # Total bandwidth to/from this memory (bytes/s)
system.mem_ctrls0.bw_total::total           249147464                       # Total bandwidth to/from this memory (bytes/s)
system.mem_ctrls0.readReqs                      77582                       # Number of read requests accepted
system.mem_ctrls0.writeReqs                     61908                       # Number of write requests accepted
system.mem_ctrls0.readBursts                    77582                       # Number of DRAM read bursts, including those serviced by the write queue
system.mem_ctrls0.writeBursts                   61908                       # Number of DRAM write bursts, including those merged in the write queue
system.mem_ctrls0.bytesReadDRAM               4963904                       # Total number of bytes read from DRAM
system.mem_ctrls0.bytesReadWrQ                   1344                       # Total number of bytes read from write queue
system.mem_ctrls0.bytesWritten                3961920                       # Total number of bytes written to DRAM
system.mem_ctrls0.bytesReadSys                4965248                       # Total read bytes from the system interface side
system.mem_ctrls0.bytesWrittenSys             3962112                       # Total written bytes from the system interface side
system.mem_ctrls0.servicedByWrQ                    21                       # Number of DRAM read bursts serviced by the write queue
system.mem_ctrls0.mergedWrBursts                    0                       # Number of DRAM write bursts merged with an existing one
system.mem_ctrls0.neitherReadNorWriteReqs            0                       # Number of requests that are neither read nor write
system.mem_ctrls0.perBankRdBursts::0             4392                       # Per bank write bursts
system.mem_ctrls0.perBankRdBursts::1             4833                       # Per bank write bursts
system.mem_ctrls0.perBankRdBursts::2             4547                       # Per bank write bursts
system.mem_ctrls0.perBankRdBursts::3             4966                       # Per bank write bursts
system.mem_ctrls0.perBankRdBursts::4             4845                       # Per bank write bursts
system.mem_ctrls0.perBankRdBursts::5             5347                       # Per bank write bursts
system.mem_ctrls0.perBankRdBursts::6             4948                       # Per bank write bursts
system.mem_ctrls0.perBankRdBursts::7             5216                       # Per bank write bursts
system.mem_ctrls0.perBankRdBursts::8             5038                       # Per bank write bursts
system.mem_ctrls0.perBankRdBursts::9             5194                       # Per bank write bursts
system.mem_ctrls0.perBankRdBursts::10            4620                       # Per bank write bursts
system.mem_ctrls0.perBankRdBursts::11            4793                       # Per bank write bursts
system.mem_ctrls0.perBankRdBursts::12            4584                       # Per bank write bursts
system.mem_ctrls0.perBankRdBursts::13            4627                       # Per bank write bursts
system.mem_ctrls0.perBankRdBursts::14            4796                       # Per bank write bursts
system.mem_ctrls0.perBankRdBursts::15            4815                       # Per bank write bursts
system.mem_ctrls0.perBankWrBursts::0             3633                       # Per bank write bursts
system.mem_ctrls0.perBankWrBursts::1             3579                       # Per bank write bursts
system.mem_ctrls0.perBankWrBursts::2             3634                       # Per bank write bursts
system.mem_ctrls0.perBankWrBursts::3             3803                       # Per bank write bursts
system.mem_ctrls0.perBankWrBursts::4             3851                       # Per bank write bursts
system.mem_ctrls0.perBankWrBursts::5             4178                       # Per bank write bursts
system.mem_ctrls0.perBankWrBursts::6             3902                       # Per bank write bursts
system.mem_ctrls0.perBankWrBursts::7             4163                       # Per bank write bursts
system.mem_ctrls0.perBankWrBursts::8             4038                       # Per bank write bursts
system.mem_ctrls0.perBankWrBursts::9             4114                       # Per bank write bursts
system.mem_ctrls0.perBankWrBursts::10            3707                       # Per bank write bursts
system.mem_ctrls0.perBankWrBursts::11            3629                       # Per bank write bursts
system.mem_ctrls0.perBankWrBursts::12            3800                       # Per bank write bursts
system.mem_ctrls0.perBankWrBursts::13            3912                       # Per bank write bursts
system.mem_ctrls0.perBankWrBursts::14            4041                       # Per bank write bursts
system.mem_ctrls0.perBankWrBursts::15            3921                       # Per bank write bursts
system.mem_ctrls0.numRdRetry                      292                       # Number of times read queue was full causing retry
system.mem_ctrls0.numWrRetry                      765                       # Number of times write queue was full causing retry
system.mem_ctrls0.totGap                  35831151500                       # Total gap between requests
system.mem_ctrls0.readPktSize::0                    0                       # Read request sizes (log2)
system.mem_ctrls0.readPktSize::1                    0                       # Read request sizes (log2)
system.mem_ctrls0.readPktSize::2                    0                       # Read request sizes (log2)
system.mem_ctrls0.readPktSize::3                    0                       # Read request sizes (log2)
system.mem_ctrls0.readPktSize::4                    0                       # Read request sizes (log2)
system.mem_ctrls0.readPktSize::5                    0                       # Read request sizes (log2)
system.mem_ctrls0.readPktSize::6                77582                       # Read request sizes (log2)
system.mem_ctrls0.writePktSize::0                   0                       # Write request sizes (log2)
system.mem_ctrls0.writePktSize::1                   0                       # Write request sizes (log2)
system.mem_ctrls0.writePktSize::2                   0                       # Write request sizes (log2)
system.mem_ctrls0.writePktSize::3                   0                       # Write request sizes (log2)
system.mem_ctrls0.writePktSize::4                   0                       # Write request sizes (log2)
system.mem_ctrls0.writePktSize::5                   0                       # Write request sizes (log2)
system.mem_ctrls0.writePktSize::6               61908                       # Write request sizes (log2)
system.mem_ctrls0.rdQLenPdf::0                  49905                       # What read queue length does an incoming req see
system.mem_ctrls0.rdQLenPdf::1                  11335                       # What read queue length does an incoming req see
system.mem_ctrls0.rdQLenPdf::2                   5527                       # What read queue length does an incoming req see
system.mem_ctrls0.rdQLenPdf::3                   2781                       # What read queue length does an incoming req see
system.mem_ctrls0.rdQLenPdf::4                   1624                       # What read queue length does an incoming req see
system.mem_ctrls0.rdQLenPdf::5                   1100                       # What read queue length does an incoming req see
system.mem_ctrls0.rdQLenPdf::6                    847                       # What read queue length does an incoming req see
system.mem_ctrls0.rdQLenPdf::7                    709                       # What read queue length does an incoming req see
system.mem_ctrls0.rdQLenPdf::8                    586                       # What read queue length does an incoming req see
system.mem_ctrls0.rdQLenPdf::9                    520                       # What read queue length does an incoming req see
system.mem_ctrls0.rdQLenPdf::10                   456                       # What read queue length does an incoming req see
system.mem_ctrls0.rdQLenPdf::11                   347                       # What read queue length does an incoming req see
system.mem_ctrls0.rdQLenPdf::12                   253                       # What read queue length does an incoming req see
system.mem_ctrls0.rdQLenPdf::13                   190                       # What read queue length does an incoming req see
system.mem_ctrls0.rdQLenPdf::14                   141                       # What read queue length does an incoming req see
system.mem_ctrls0.rdQLenPdf::15                   105                       # What read queue length does an incoming req see
system.mem_ctrls0.rdQLenPdf::16                    70                       # What read queue length does an incoming req see
system.mem_ctrls0.rdQLenPdf::17                    63                       # What read queue length does an incoming req see
system.mem_ctrls0.rdQLenPdf::18                    57                       # What read queue length does an incoming req see
system.mem_ctrls0.rdQLenPdf::19                    47                       # What read queue length does an incoming req see
system.mem_ctrls0.rdQLenPdf::20                    43                       # What read queue length does an incoming req see
system.mem_ctrls0.rdQLenPdf::21                    45                       # What read queue length does an incoming req see
system.mem_ctrls0.rdQLenPdf::22                    47                       # What read queue length does an incoming req see
system.mem_ctrls0.rdQLenPdf::23                    52                       # What read queue length does an incoming req see
system.mem_ctrls0.rdQLenPdf::24                    49                       # What read queue length does an incoming req see
system.mem_ctrls0.rdQLenPdf::25                    48                       # What read queue length does an incoming req see
system.mem_ctrls0.rdQLenPdf::26                    49                       # What read queue length does an incoming req see
system.mem_ctrls0.rdQLenPdf::27                    53                       # What read queue length does an incoming req see
system.mem_ctrls0.rdQLenPdf::28                    51                       # What read queue length does an incoming req see
system.mem_ctrls0.rdQLenPdf::29                    51                       # What read queue length does an incoming req see
system.mem_ctrls0.rdQLenPdf::30                    54                       # What read queue length does an incoming req see
system.mem_ctrls0.rdQLenPdf::31                   356                       # What read queue length does an incoming req see
system.mem_ctrls0.wrQLenPdf::0                  10550                       # What write queue length does an incoming req see
system.mem_ctrls0.wrQLenPdf::1                  11979                       # What write queue length does an incoming req see
system.mem_ctrls0.wrQLenPdf::2                  12188                       # What write queue length does an incoming req see
system.mem_ctrls0.wrQLenPdf::3                  12030                       # What write queue length does an incoming req see
system.mem_ctrls0.wrQLenPdf::4                  11758                       # What write queue length does an incoming req see
system.mem_ctrls0.wrQLenPdf::5                   1242                       # What write queue length does an incoming req see
system.mem_ctrls0.wrQLenPdf::6                    847                       # What write queue length does an incoming req see
system.mem_ctrls0.wrQLenPdf::7                   1314                       # What write queue length does an incoming req see
system.mem_ctrls0.bytesPerActivate::samples        57663                       # Bytes accessed per row activation
system.mem_ctrls0.bytesPerActivate::mean   154.777379                       # Bytes accessed per row activation
system.mem_ctrls0.bytesPerActivate::gmean   111.242022                       # Bytes accessed per row activation
system.mem_ctrls0.bytesPerActivate::stdev   165.260708                       # Bytes accessed per row activation
system.mem_ctrls0.bytesPerActivate::0-127        32314     56.04%     56.04% # Bytes accessed per row activation
system.mem_ctrls0.bytesPerActivate::128-255        13669     23.70%     79.74% # Bytes accessed per row activation
system.mem_ctrls0.bytesPerActivate::256-383         7151     12.40%     92.15% # Bytes accessed per row activation
system.mem_ctrls0.bytesPerActivate::384-511         1776      3.08%     95.23% # Bytes accessed per row activation
system.mem_ctrls0.bytesPerActivate::512-639          981      1.70%     96.93% # Bytes accessed per row activation
system.mem_ctrls0.bytesPerActivate::640-767          539      0.93%     97.86% # Bytes accessed per row activation
system.mem_ctrls0.bytesPerActivate::768-895          390      0.68%     98.54% # Bytes accessed per row activation
system.mem_ctrls0.bytesPerActivate::896-1023          283      0.49%     99.03% # Bytes accessed per row activation
system.mem_ctrls0.bytesPerActivate::1024-1151          560      0.97%    100.00% # Bytes accessed per row activation
system.mem_ctrls0.bytesPerActivate::total        57663                       # Bytes accessed per row activation
system.mem_ctrls0.rdPerTurnAround::samples        10720                       # Reads before turning the bus around for writes
system.mem_ctrls0.rdPerTurnAround::mean      7.234422                       # Reads before turning the bus around for writes
system.mem_ctrls0.rdPerTurnAround::stdev    39.020302                       # Reads before turning the bus around for writes
system.mem_ctrls0.rdPerTurnAround::0-127        10714     99.94%     99.94% # Reads before turning the bus around for writes
system.mem_ctrls0.rdPerTurnAround::128-255            5      0.05%     99.99% # Reads before turning the bus around for writes
system.mem_ctrls0.rdPerTurnAround::3968-4095            1      0.01%    100.00% # Reads before turning the bus around for writes
system.mem_ctrls0.rdPerTurnAround::total        10720                       # Reads before turning the bus around for writes
system.mem_ctrls0.wrPerTurnAround::samples        10720                       # Writes before turning the bus around for reads
system.mem_ctrls0.wrPerTurnAround::mean      5.774720                       # Writes before turning the bus around for reads
system.mem_ctrls0.wrPerTurnAround::gmean     5.556481                       # Writes before turning the bus around for reads
system.mem_ctrls0.wrPerTurnAround::stdev     2.082516                       # Writes before turning the bus around for reads
system.mem_ctrls0.wrPerTurnAround::4-7           9814     91.55%     91.55% # Writes before turning the bus around for reads
system.mem_ctrls0.wrPerTurnAround::8-11           474      4.42%     95.97% # Writes before turning the bus around for reads
system.mem_ctrls0.wrPerTurnAround::12-15          213      1.99%     97.96% # Writes before turning the bus around for reads
system.mem_ctrls0.wrPerTurnAround::16-19          219      2.04%    100.00% # Writes before turning the bus around for reads
system.mem_ctrls0.wrPerTurnAround::total        10720                       # Writes before turning the bus around for reads
system.mem_ctrls0.totQLat                  3245329647                       # Total ticks spent queuing
system.mem_ctrls0.totMemAccLat             4699598397                       # Total ticks spent from burst creation until serviced by the DRAM
system.mem_ctrls0.totBusLat                 387805000                       # Total ticks spent in databus transfers
system.mem_ctrls0.avgQLat                    41842.29                       # Average queueing delay per DRAM burst
system.mem_ctrls0.avgBusLat                   5000.00                       # Average bus latency per DRAM burst
system.mem_ctrls0.avgMemAccLat               60592.29                       # Average memory access latency per DRAM burst
system.mem_ctrls0.avgRdBW                      138.53                       # Average DRAM read bandwidth in MiByte/s
system.mem_ctrls0.avgWrBW                      110.57                       # Average achieved write bandwidth in MiByte/s
system.mem_ctrls0.avgRdBWSys                   138.57                       # Average system read bandwidth in MiByte/s
system.mem_ctrls0.avgWrBWSys                   110.58                       # Average system write bandwidth in MiByte/s
system.mem_ctrls0.peakBW                     12800.00                       # Theoretical peak bandwidth in MiByte/s
system.mem_ctrls0.busUtil                        1.95                       # Data bus utilization in percentage
system.mem_ctrls0.busUtilRead                    1.08                       # Data bus utilization in percentage for reads
system.mem_ctrls0.busUtilWrite                   0.86                       # Data bus utilization in percentage for writes
system.mem_ctrls0.avgRdQLen                      1.15                       # Average read queue length when enqueuing
system.mem_ctrls0.avgWrQLen                      2.85                       # Average write queue length when enqueuing
system.mem_ctrls0.readRowHits                   50932                       # Number of row buffer hits during reads
system.mem_ctrls0.writeRowHits                  30863                       # Number of row buffer hits during writes
system.mem_ctrls0.readRowHitRate                65.67                       # Row buffer hit rate for reads
system.mem_ctrls0.writeRowHitRate               49.85                       # Row buffer hit rate for writes
system.mem_ctrls0.avgGap                    256872.55                       # Average gap between requests
system.mem_ctrls0.pageHitRate                   58.65                       # Row buffer hit rate, read and write combined
system.mem_ctrls0.memoryStateTime::IDLE    8403100000                       # Time in different power states
system.mem_ctrls0.memoryStateTime::REF     1196260000                       # Time in different power states
system.mem_ctrls0.memoryStateTime::PRE_PDN            0                       # Time in different power states
system.mem_ctrls0.memoryStateTime::ACT    26225630000                       # Time in different power states
system.mem_ctrls0.memoryStateTime::ACT_PDN            0                       # Time in different power states
system.mem_ctrls0.actEnergy::0              216646920                       # Energy for activate commands per rank (pJ)
system.mem_ctrls0.actEnergy::1              219240000                       # Energy for activate commands per rank (pJ)
system.mem_ctrls0.preEnergy::0              118210125                       # Energy for precharge commands per rank (pJ)
system.mem_ctrls0.preEnergy::1              119625000                       # Energy for precharge commands per rank (pJ)
system.mem_ctrls0.readEnergy::0             304878600                       # Energy for read commands per rank (pJ)
system.mem_ctrls0.readEnergy::1             299941200                       # Energy for read commands per rank (pJ)
system.mem_ctrls0.writeEnergy::0            199208160                       # Energy for write commands per rank (pJ)
system.mem_ctrls0.writeEnergy::1            201903840                       # Energy for write commands per rank (pJ)
system.mem_ctrls0.refreshEnergy::0         2339884560                       # Energy for refresh commands per rank (pJ)
system.mem_ctrls0.refreshEnergy::1         2339884560                       # Energy for refresh commands per rank (pJ)
system.mem_ctrls0.actBackEnergy::0        13961400165                       # Energy for active background per rank (pJ)
system.mem_ctrls0.actBackEnergy::1        13482641205                       # Energy for active background per rank (pJ)
system.mem_ctrls0.preBackEnergy::0         9248035500                       # Energy for precharge background per rank (pJ)
system.mem_ctrls0.preBackEnergy::1         9667999500                       # Energy for precharge background per rank (pJ)
system.mem_ctrls0.totalEnergy::0          26388264030                       # Total energy per rank (pJ)
system.mem_ctrls0.totalEnergy::1          26331235305                       # Total energy per rank (pJ)
system.mem_ctrls0.averagePower::0          736.592159                       # Core power per rank (mW)
system.mem_ctrls0.averagePower::1          735.000281                       # Core power per rank (mW)
system.mem_ctrls1.bytes_read::ruby.dir_cntrl1      4879360                       # Number of bytes read from this memory
system.mem_ctrls1.bytes_read::total           4879360                       # Number of bytes read from this memory
system.mem_ctrls1.bytes_written::ruby.dir_cntrl1      3884736                       # Number of bytes written to this memory
system.mem_ctrls1.bytes_written::total        3884736                       # Number of bytes written to this memory
system.mem_ctrls1.num_reads::ruby.dir_cntrl1        76240                       # Number of read requests responded to by this memory
system.mem_ctrls1.num_reads::total              76240                       # Number of read requests responded to by this memory
system.mem_ctrls1.num_writes::ruby.dir_cntrl1        60699                       # Number of write requests responded to by this memory
system.mem_ctrls1.num_writes::total             60699                       # Number of write requests responded to by this memory
system.mem_ctrls1.bw_read::ruby.dir_cntrl1    136174655                       # Total read bandwidth from this memory (bytes/s)
system.mem_ctrls1.bw_read::total            136174655                       # Total read bandwidth from this memory (bytes/s)
system.mem_ctrls1.bw_write::ruby.dir_cntrl1    108416388                       # Write bandwidth from this memory (bytes/s)
system.mem_ctrls1.bw_write::total           108416388                       # Write bandwidth from this memory (bytes/s)
system.mem_ctrls1.bw_total::ruby.dir_cntrl1    244591043                       # Total bandwidth to/from this memory (bytes/s)
system.mem_ctrls1.bw_total::total           244591043                       # Total bandwidth to/from this memory (bytes/s)
system.mem_ctrls1.readReqs                      76240                       # Number of read requests accepted
system.mem_ctrls1.writeReqs                     60699                       # Number of write requests accepted
system.mem_ctrls1.readBursts                    76240                       # Number of DRAM read bursts, including those serviced by the write queue
system.mem_ctrls1.writeBursts                   60699                       # Number of DRAM write bursts, including those merged in the write queue
system.mem_ctrls1.bytesReadDRAM               4878656                       # Total number of bytes read from DRAM
system.mem_ctrls1.bytesReadWrQ                    704                       # Total number of bytes read from write queue
system.mem_ctrls1.bytesWritten                3884736                       # Total number of bytes written to DRAM
system.mem_ctrls1.bytesReadSys                4879360                       # Total read bytes from the system interface side
system.mem_ctrls1.bytesWrittenSys             3884736                       # Total written bytes from the system interface side
system.mem_ctrls1.servicedByWrQ                    11                       # Number of DRAM read bursts serviced by the write queue
system.mem_ctrls1.mergedWrBursts                    0                       # Number of DRAM write bursts merged with an existing one
system.mem_ctrls1.neitherReadNorWriteReqs            0                       # Number of requests that are neither read nor write
system.mem_ctrls1.perBankRdBursts::0             4324                       # Per bank write bursts
system.mem_ctrls1.perBankRdBursts::1             4743                       # Per bank write bursts
system.mem_ctrls1.perBankRdBursts::2             4463                       # Per bank write bursts
system.mem_ctrls1.perBankRdBursts::3             4894                       # Per bank write bursts
system.mem_ctrls1.perBankRdBursts::4             4779                       # Per bank write bursts
system.mem_ctrls1.perBankRdBursts::5             5289                       # Per bank write bursts
system.mem_ctrls1.perBankRdBursts::6             4883                       # Per bank write bursts
system.mem_ctrls1.perBankRdBursts::7             5158                       # Per bank write bursts
system.mem_ctrls1.perBankRdBursts::8             4935                       # Per bank write bursts
system.mem_ctrls1.perBankRdBursts::9             5083                       # Per bank write bursts
system.mem_ctrls1.perBankRdBursts::10            4522                       # Per bank write bursts
system.mem_ctrls1.perBankRdBursts::11            4727                       # Per bank write bursts
system.mem_ctrls1.perBankRdBursts::12            4485                       # Per bank write bursts
system.mem_ctrls1.perBankRdBursts::13            4570                       # Per bank write bursts
system.mem_ctrls1.perBankRdBursts::14            4636                       # Per bank write bursts
system.mem_ctrls1.perBankRdBursts::15            4738                       # Per bank write bursts
system.mem_ctrls1.perBankWrBursts::0             3569                       # Per bank write bursts
system.mem_ctrls1.perBankWrBursts::1             3521                       # Per bank write bursts
system.mem_ctrls1.perBankWrBursts::2             3566                       # Per bank write bursts
system.mem_ctrls1.perBankWrBursts::3             3754                       # Per bank write bursts
system.mem_ctrls1.perBankWrBursts::4             3785                       # Per bank write bursts
system.mem_ctrls1.perBankWrBursts::5             4107                       # Per bank write bursts
system.mem_ctrls1.perBankWrBursts::6             3823                       # Per bank write bursts
system.mem_ctrls1.perBankWrBursts::7             4084                       # Per bank write bursts
system.mem_ctrls1.perBankWrBursts::8             3954                       # Per bank write bursts
system.mem_ctrls1.perBankWrBursts::9             4018                       # Per bank write bursts
system.mem_ctrls1.perBankWrBursts::10            3627                       # Per bank write bursts
system.mem_ctrls1.perBankWrBursts::11            3563                       # Per bank write bursts
system.mem_ctrls1.perBankWrBursts::12            3724                       # Per bank write bursts
system.mem_ctrls1.perBankWrBursts::13            3840                       # Per bank write bursts
system.mem_ctrls1.perBankWrBursts::14            3913                       # Per bank write bursts
system.mem_ctrls1.perBankWrBursts::15            3851                       # Per bank write bursts
system.mem_ctrls1.numRdRetry                      254                       # Number of times read queue was full causing retry
system.mem_ctrls1.numWrRetry                      949                       # Number of times write queue was full causing retry
system.mem_ctrls1.totGap                  35830913500                       # Total gap between requests
system.mem_ctrls1.readPktSize::0                    0                       # Read request sizes (log2)
system.mem_ctrls1.readPktSize::1                    0                       # Read request sizes (log2)
system.mem_ctrls1.readPktSize::2                    0                       # Read request sizes (log2)
system.mem_ctrls1.readPktSize::3                    0                       # Read request sizes (log2)
system.mem_ctrls1.readPktSize::4                    0                       # Read request sizes (log2)
system.mem_ctrls1.readPktSize::5                    0                       # Read request sizes (log2)
system.mem_ctrls1.readPktSize::6                76240                       # Read request sizes (log2)
system.mem_ctrls1.writePktSize::0                   0                       # Write request sizes (log2)
system.mem_ctrls1.writePktSize::1                   0                       # Write request sizes (log2)
system.mem_ctrls1.writePktSize::2                   0                       # Write request sizes (log2)
system.mem_ctrls1.writePktSize::3                   0                       # Write request sizes (log2)
system.mem_ctrls1.writePktSize::4                   0                       # Write request sizes (log2)
system.mem_ctrls1.writePktSize::5                   0                       # Write request sizes (log2)
system.mem_ctrls1.writePktSize::6               60699                       # Write request sizes (log2)
system.mem_ctrls1.rdQLenPdf::0                  49392                       # What read queue length does an incoming req see
system.mem_ctrls1.rdQLenPdf::1                  10692                       # What read queue length does an incoming req see
system.mem_ctrls1.rdQLenPdf::2                   5440                       # What read queue length does an incoming req see
system.mem_ctrls1.rdQLenPdf::3                   2815                       # What read queue length does an incoming req see
system.mem_ctrls1.rdQLenPdf::4                   1522                       # What read queue length does an incoming req see
system.mem_ctrls1.rdQLenPdf::5                   1006                       # What read queue length does an incoming req see
system.mem_ctrls1.rdQLenPdf::6                    801                       # What read queue length does an incoming req see
system.mem_ctrls1.rdQLenPdf::7                    656                       # What read queue length does an incoming req see
system.mem_ctrls1.rdQLenPdf::8                    585                       # What read queue length does an incoming req see
system.mem_ctrls1.rdQLenPdf::9                    517                       # What read queue length does an incoming req see
system.mem_ctrls1.rdQLenPdf::10                   460                       # What read queue length does an incoming req see
system.mem_ctrls1.rdQLenPdf::11                   396                       # What read queue length does an incoming req see
system.mem_ctrls1.rdQLenPdf::12                   284                       # What read queue length does an incoming req see
system.mem_ctrls1.rdQLenPdf::13                   244                       # What read queue length does an incoming req see
system.mem_ctrls1.rdQLenPdf::14                   171                       # What read queue length does an incoming req see
system.mem_ctrls1.rdQLenPdf::15                   123                       # What read queue length does an incoming req see
system.mem_ctrls1.rdQLenPdf::16                   107                       # What read queue length does an incoming req see
system.mem_ctrls1.rdQLenPdf::17                    83                       # What read queue length does an incoming req see
system.mem_ctrls1.rdQLenPdf::18                    75                       # What read queue length does an incoming req see
system.mem_ctrls1.rdQLenPdf::19                    47                       # What read queue length does an incoming req see
system.mem_ctrls1.rdQLenPdf::20                    54                       # What read queue length does an incoming req see
system.mem_ctrls1.rdQLenPdf::21                    50                       # What read queue length does an incoming req see
system.mem_ctrls1.rdQLenPdf::22                    48                       # What read queue length does an incoming req see
system.mem_ctrls1.rdQLenPdf::23                    45                       # What read queue length does an incoming req see
system.mem_ctrls1.rdQLenPdf::24                    49                       # What read queue length does an incoming req see
system.mem_ctrls1.rdQLenPdf::25                    47                       # What read queue length does an incoming req see
system.mem_ctrls1.rdQLenPdf::26                    51                       # What read queue length does an incoming req see
system.mem_ctrls1.rdQLenPdf::27                    54                       # What read queue length does an incoming req see
system.mem_ctrls1.rdQLenPdf::28                    45                       # What read queue length does an incoming req see
system.mem_ctrls1.rdQLenPdf::29                    42                       # What read queue length does an incoming req see
system.mem_ctrls1.rdQLenPdf::30                    37                       # What read queue length does an incoming req see
system.mem_ctrls1.rdQLenPdf::31                   291                       # What read queue length does an incoming req see
system.mem_ctrls1.wrQLenPdf::0                  10233                       # What write queue length does an incoming req see
system.mem_ctrls1.wrQLenPdf::1                  11622                       # What write queue length does an incoming req see
system.mem_ctrls1.wrQLenPdf::2                  11802                       # What write queue length does an incoming req see
system.mem_ctrls1.wrQLenPdf::3                  11737                       # What write queue length does an incoming req see
system.mem_ctrls1.wrQLenPdf::4                  11547                       # What write queue length does an incoming req see
system.mem_ctrls1.wrQLenPdf::5                   1309                       # What write queue length does an incoming req see
system.mem_ctrls1.wrQLenPdf::6                    887                       # What write queue length does an incoming req see
system.mem_ctrls1.wrQLenPdf::7                   1562                       # What write queue length does an incoming req see
system.mem_ctrls1.bytesPerActivate::samples        55655                       # Bytes accessed per row activation
system.mem_ctrls1.bytesPerActivate::mean   157.441955                       # Bytes accessed per row activation
system.mem_ctrls1.bytesPerActivate::gmean   112.404072                       # Bytes accessed per row activation
system.mem_ctrls1.bytesPerActivate::stdev   168.961028                       # Bytes accessed per row activation
system.mem_ctrls1.bytesPerActivate::0-127        30959     55.63%     55.63% # Bytes accessed per row activation
system.mem_ctrls1.bytesPerActivate::128-255        13179     23.68%     79.31% # Bytes accessed per row activation
system.mem_ctrls1.bytesPerActivate::256-383         6964     12.51%     91.82% # Bytes accessed per row activation
system.mem_ctrls1.bytesPerActivate::384-511         1738      3.12%     94.94% # Bytes accessed per row activation
system.mem_ctrls1.bytesPerActivate::512-639          969      1.74%     96.68% # Bytes accessed per row activation
system.mem_ctrls1.bytesPerActivate::640-767          593      1.07%     97.75% # Bytes accessed per row activation
system.mem_ctrls1.bytesPerActivate::768-895          408      0.73%     98.48% # Bytes accessed per row activation
system.mem_ctrls1.bytesPerActivate::896-1023          250      0.45%     98.93% # Bytes accessed per row activation
system.mem_ctrls1.bytesPerActivate::1024-1151          595      1.07%    100.00% # Bytes accessed per row activation
system.mem_ctrls1.bytesPerActivate::total        55655                       # Bytes accessed per row activation
system.mem_ctrls1.rdPerTurnAround::samples        10456                       # Reads before turning the bus around for writes
system.mem_ctrls1.rdPerTurnAround::mean      7.290455                       # Reads before turning the bus around for writes
system.mem_ctrls1.rdPerTurnAround::stdev    31.162883                       # Reads before turning the bus around for writes
system.mem_ctrls1.rdPerTurnAround::0-127        10451     99.95%     99.95% # Reads before turning the bus around for writes
system.mem_ctrls1.rdPerTurnAround::128-255            3      0.03%     99.98% # Reads before turning the bus around for writes
system.mem_ctrls1.rdPerTurnAround::1152-1279            1      0.01%     99.99% # Reads before turning the bus around for writes
system.mem_ctrls1.rdPerTurnAround::2816-2943            1      0.01%    100.00% # Reads before turning the bus around for writes
system.mem_ctrls1.rdPerTurnAround::total        10456                       # Reads before turning the bus around for writes
system.mem_ctrls1.wrPerTurnAround::samples        10456                       # Writes before turning the bus around for reads
system.mem_ctrls1.wrPerTurnAround::mean      5.805184                       # Writes before turning the bus around for reads
system.mem_ctrls1.wrPerTurnAround::gmean     5.567648                       # Writes before turning the bus around for reads
system.mem_ctrls1.wrPerTurnAround::stdev     2.195168                       # Writes before turning the bus around for reads
system.mem_ctrls1.wrPerTurnAround::4-7           9549     91.33%     91.33% # Writes before turning the bus around for reads
system.mem_ctrls1.wrPerTurnAround::8-11           453      4.33%     95.66% # Writes before turning the bus around for reads
system.mem_ctrls1.wrPerTurnAround::12-15          169      1.62%     97.27% # Writes before turning the bus around for reads
system.mem_ctrls1.wrPerTurnAround::16-19          285      2.73%    100.00% # Writes before turning the bus around for reads
system.mem_ctrls1.wrPerTurnAround::total        10456                       # Writes before turning the bus around for reads
system.mem_ctrls1.totQLat                  3255818474                       # Total ticks spent queuing
system.mem_ctrls1.totMemAccLat             4685112224                       # Total ticks spent from burst creation until serviced by the DRAM
system.mem_ctrls1.totBusLat                 381145000                       # Total ticks spent in databus transfers
system.mem_ctrls1.avgQLat                    42711.02                       # Average queueing delay per DRAM burst
system.mem_ctrls1.avgBusLat                   5000.00                       # Average bus latency per DRAM burst
system.mem_ctrls1.avgMemAccLat               61461.02                       # Average memory access latency per DRAM burst
system.mem_ctrls1.avgRdBW                      136.16                       # Average DRAM read bandwidth in MiByte/s
system.mem_ctrls1.avgWrBW                      108.42                       # Average achieved write bandwidth in MiByte/s
system.mem_ctrls1.avgRdBWSys                   136.17                       # Average system read bandwidth in MiByte/s
system.mem_ctrls1.avgWrBWSys                   108.42                       # Average system write bandwidth in MiByte/s
system.mem_ctrls1.peakBW                     12800.00                       # Theoretical peak bandwidth in MiByte/s
system.mem_ctrls1.busUtil                        1.91                       # Data bus utilization in percentage
system.mem_ctrls1.busUtilRead                    1.06                       # Data bus utilization in percentage for reads
system.mem_ctrls1.busUtilWrite                   0.85                       # Data bus utilization in percentage for writes
system.mem_ctrls1.avgRdQLen                      1.12                       # Average read queue length when enqueuing
system.mem_ctrls1.avgWrQLen                      2.91                       # Average write queue length when enqueuing
system.mem_ctrls1.readRowHits                   50249                       # Number of row buffer hits during reads
system.mem_ctrls1.writeRowHits                  31014                       # Number of row buffer hits during writes
system.mem_ctrls1.readRowHitRate                65.92                       # Row buffer hit rate for reads
system.mem_ctrls1.writeRowHitRate               51.09                       # Row buffer hit rate for writes
system.mem_ctrls1.avgGap                    261656.02                       # Average gap between requests
system.mem_ctrls1.pageHitRate                   59.35                       # Row buffer hit rate, read and write combined
system.mem_ctrls1.memoryStateTime::IDLE    8755188250                       # Time in different power states
system.mem_ctrls1.memoryStateTime::REF     1196260000                       # Time in different power states
system.mem_ctrls1.memoryStateTime::PRE_PDN            0                       # Time in different power states
system.mem_ctrls1.memoryStateTime::ACT    25873716750                       # Time in different power states
system.mem_ctrls1.memoryStateTime::ACT_PDN            0                       # Time in different power states
system.mem_ctrls1.actEnergy::0              210546000                       # Energy for activate commands per rank (pJ)
system.mem_ctrls1.actEnergy::1              210122640                       # Energy for activate commands per rank (pJ)
system.mem_ctrls1.preEnergy::0              114881250                       # Energy for precharge commands per rank (pJ)
system.mem_ctrls1.preEnergy::1              114650250                       # Energy for precharge commands per rank (pJ)
system.mem_ctrls1.readEnergy::0             300471600                       # Energy for read commands per rank (pJ)
system.mem_ctrls1.readEnergy::1             293919600                       # Energy for read commands per rank (pJ)
system.mem_ctrls1.writeEnergy::0            195754320                       # Energy for write commands per rank (pJ)
system.mem_ctrls1.writeEnergy::1            197478000                       # Energy for write commands per rank (pJ)
system.mem_ctrls1.refreshEnergy::0         2339884560                       # Energy for refresh commands per rank (pJ)
system.mem_ctrls1.refreshEnergy::1         2339884560                       # Energy for refresh commands per rank (pJ)
system.mem_ctrls1.actBackEnergy::0        13836779640                       # Energy for active background per rank (pJ)
system.mem_ctrls1.actBackEnergy::1        13085578350                       # Energy for active background per rank (pJ)
system.mem_ctrls1.preBackEnergy::0         9357351750                       # Energy for precharge background per rank (pJ)
system.mem_ctrls1.preBackEnergy::1        10016300250                       # Energy for precharge background per rank (pJ)
system.mem_ctrls1.totalEnergy::0          26355669120                       # Total energy per rank (pJ)
system.mem_ctrls1.totalEnergy::1          26257933650                       # Total energy per rank (pJ)
system.mem_ctrls1.averagePower::0          735.682317                       # Core power per rank (mW)
system.mem_ctrls1.averagePower::1          732.954166                       # Core power per rank (mW)
system.mem_ctrls2.bytes_read::ruby.dir_cntrl2      4880832                       # Number of bytes read from this memory
system.mem_ctrls2.bytes_read::total           4880832                       # Number of bytes read from this memory
system.mem_ctrls2.bytes_written::ruby.dir_cntrl2      3886080                       # Number of bytes written to this memory
system.mem_ctrls2.bytes_written::total        3886080                       # Number of bytes written to this memory
system.mem_ctrls2.num_reads::ruby.dir_cntrl2        76263                       # Number of read requests responded to by this memory
system.mem_ctrls2.num_reads::total              76263                       # Number of read requests responded to by this memory
system.mem_ctrls2.num_writes::ruby.dir_cntrl2        60720                       # Number of write requests responded to by this memory
system.mem_ctrls2.num_writes::total             60720                       # Number of write requests responded to by this memory
system.mem_ctrls2.bw_read::ruby.dir_cntrl2    136215736                       # Total read bandwidth from this memory (bytes/s)
system.mem_ctrls2.bw_read::total            136215736                       # Total read bandwidth from this memory (bytes/s)
system.mem_ctrls2.bw_write::ruby.dir_cntrl2    108453897                       # Write bandwidth from this memory (bytes/s)
system.mem_ctrls2.bw_write::total           108453897                       # Write bandwidth from this memory (bytes/s)
system.mem_ctrls2.bw_total::ruby.dir_cntrl2    244669633                       # Total bandwidth to/from this memory (bytes/s)
system.mem_ctrls2.bw_total::total           244669633                       # Total bandwidth to/from this memory (bytes/s)
system.mem_ctrls2.readReqs                      76263                       # Number of read requests accepted
system.mem_ctrls2.writeReqs                     60720                       # Number of write requests accepted
system.mem_ctrls2.readBursts                    76263                       # Number of DRAM read bursts, including those serviced by the write queue
system.mem_ctrls2.writeBursts                   60720                       # Number of DRAM write bursts, including those merged in the write queue
system.mem_ctrls2.bytesReadDRAM               4879872                       # Total number of bytes read from DRAM
system.mem_ctrls2.bytesReadWrQ                    960                       # Total number of bytes read from write queue
system.mem_ctrls2.bytesWritten                3885824                       # Total number of bytes written to DRAM
system.mem_ctrls2.bytesReadSys                4880832                       # Total read bytes from the system interface side
system.mem_ctrls2.bytesWrittenSys             3886080                       # Total written bytes from the system interface side
system.mem_ctrls2.servicedByWrQ                    15                       # Number of DRAM read bursts serviced by the write queue
system.mem_ctrls2.mergedWrBursts                    0                       # Number of DRAM write bursts merged with an existing one
system.mem_ctrls2.neitherReadNorWriteReqs            0                       # Number of requests that are neither read nor write
system.mem_ctrls2.perBankRdBursts::0             4320                       # Per bank write bursts
system.mem_ctrls2.perBankRdBursts::1             4749                       # Per bank write bursts
system.mem_ctrls2.perBankRdBursts::2             4476                       # Per bank write bursts
system.mem_ctrls2.perBankRdBursts::3             4903                       # Per bank write bursts
system.mem_ctrls2.perBankRdBursts::4             4775                       # Per bank write bursts
system.mem_ctrls2.perBankRdBursts::5             5293                       # Per bank write bursts
system.mem_ctrls2.perBankRdBursts::6             4863                       # Per bank write bursts
system.mem_ctrls2.perBankRdBursts::7             5156                       # Per bank write bursts
system.mem_ctrls2.perBankRdBursts::8             4919                       # Per bank write bursts
system.mem_ctrls2.perBankRdBursts::9             5095                       # Per bank write bursts
system.mem_ctrls2.perBankRdBursts::10            4528                       # Per bank write bursts
system.mem_ctrls2.perBankRdBursts::11            4768                       # Per bank write bursts
system.mem_ctrls2.perBankRdBursts::12            4488                       # Per bank write bursts
system.mem_ctrls2.perBankRdBursts::13            4540                       # Per bank write bursts
system.mem_ctrls2.perBankRdBursts::14            4624                       # Per bank write bursts
system.mem_ctrls2.perBankRdBursts::15            4751                       # Per bank write bursts
system.mem_ctrls2.perBankWrBursts::0             3573                       # Per bank write bursts
system.mem_ctrls2.perBankWrBursts::1             3525                       # Per bank write bursts
system.mem_ctrls2.perBankWrBursts::2             3567                       # Per bank write bursts
system.mem_ctrls2.perBankWrBursts::3             3743                       # Per bank write bursts
system.mem_ctrls2.perBankWrBursts::4             3780                       # Per bank write bursts
system.mem_ctrls2.perBankWrBursts::5             4108                       # Per bank write bursts
system.mem_ctrls2.perBankWrBursts::6             3830                       # Per bank write bursts
system.mem_ctrls2.perBankWrBursts::7             4092                       # Per bank write bursts
system.mem_ctrls2.perBankWrBursts::8             3954                       # Per bank write bursts
system.mem_ctrls2.perBankWrBursts::9             4026                       # Per bank write bursts
system.mem_ctrls2.perBankWrBursts::10            3630                       # Per bank write bursts
system.mem_ctrls2.perBankWrBursts::11            3569                       # Per bank write bursts
system.mem_ctrls2.perBankWrBursts::12            3728                       # Per bank write bursts
system.mem_ctrls2.perBankWrBursts::13            3832                       # Per bank write bursts
system.mem_ctrls2.perBankWrBursts::14            3909                       # Per bank write bursts
system.mem_ctrls2.perBankWrBursts::15            3850                       # Per bank write bursts
system.mem_ctrls2.numRdRetry                      185                       # Number of times read queue was full causing retry
system.mem_ctrls2.numWrRetry                     1011                       # Number of times write queue was full causing retry
system.mem_ctrls2.totGap                  35831401500                       # Total gap between requests
system.mem_ctrls2.readPktSize::0                    0                       # Read request sizes (log2)
system.mem_ctrls2.readPktSize::1                    0                       # Read request sizes (log2)
system.mem_ctrls2.readPktSize::2                    0                       # Read request sizes (log2)
system.mem_ctrls2.readPktSize::3                    0                       # Read request sizes (log2)
system.mem_ctrls2.readPktSize::4                    0                       # Read request sizes (log2)
system.mem_ctrls2.readPktSize::5                    0                       # Read request sizes (log2)
system.mem_ctrls2.readPktSize::6                76263                       # Read request sizes (log2)
system.mem_ctrls2.writePktSize::0                   0                       # Write request sizes (log2)
system.mem_ctrls2.writePktSize::1                   0                       # Write request sizes (log2)
system.mem_ctrls2.writePktSize::2                   0                       # Write request sizes (log2)
system.mem_ctrls2.writePktSize::3                   0                       # Write request sizes (log2)
system.mem_ctrls2.writePktSize::4                   0                       # Write request sizes (log2)
system.mem_ctrls2.writePktSize::5                   0                       # Write request sizes (log2)
system.mem_ctrls2.writePktSize::6               60720                       # Write request sizes (log2)
system.mem_ctrls2.rdQLenPdf::0                  49333                       # What read queue length does an incoming req see
system.mem_ctrls2.rdQLenPdf::1                  10736                       # What read queue length does an incoming req see
system.mem_ctrls2.rdQLenPdf::2                   5402                       # What read queue length does an incoming req see
system.mem_ctrls2.rdQLenPdf::3                   2753                       # What read queue length does an incoming req see
system.mem_ctrls2.rdQLenPdf::4                   1556                       # What read queue length does an incoming req see
system.mem_ctrls2.rdQLenPdf::5                   1014                       # What read queue length does an incoming req see
system.mem_ctrls2.rdQLenPdf::6                    820                       # What read queue length does an incoming req see
system.mem_ctrls2.rdQLenPdf::7                    718                       # What read queue length does an incoming req see
system.mem_ctrls2.rdQLenPdf::8                    631                       # What read queue length does an incoming req see
system.mem_ctrls2.rdQLenPdf::9                    526                       # What read queue length does an incoming req see
system.mem_ctrls2.rdQLenPdf::10                   466                       # What read queue length does an incoming req see
system.mem_ctrls2.rdQLenPdf::11                   405                       # What read queue length does an incoming req see
system.mem_ctrls2.rdQLenPdf::12                   317                       # What read queue length does an incoming req see
system.mem_ctrls2.rdQLenPdf::13                   264                       # What read queue length does an incoming req see
system.mem_ctrls2.rdQLenPdf::14                   212                       # What read queue length does an incoming req see
system.mem_ctrls2.rdQLenPdf::15                   142                       # What read queue length does an incoming req see
system.mem_ctrls2.rdQLenPdf::16                    94                       # What read queue length does an incoming req see
system.mem_ctrls2.rdQLenPdf::17                    80                       # What read queue length does an incoming req see
system.mem_ctrls2.rdQLenPdf::18                    64                       # What read queue length does an incoming req see
system.mem_ctrls2.rdQLenPdf::19                    58                       # What read queue length does an incoming req see
system.mem_ctrls2.rdQLenPdf::20                    58                       # What read queue length does an incoming req see
system.mem_ctrls2.rdQLenPdf::21                    51                       # What read queue length does an incoming req see
system.mem_ctrls2.rdQLenPdf::22                    44                       # What read queue length does an incoming req see
system.mem_ctrls2.rdQLenPdf::23                    37                       # What read queue length does an incoming req see
system.mem_ctrls2.rdQLenPdf::24                    42                       # What read queue length does an incoming req see
system.mem_ctrls2.rdQLenPdf::25                    36                       # What read queue length does an incoming req see
system.mem_ctrls2.rdQLenPdf::26                    31                       # What read queue length does an incoming req see
system.mem_ctrls2.rdQLenPdf::27                    35                       # What read queue length does an incoming req see
system.mem_ctrls2.rdQLenPdf::28                    32                       # What read queue length does an incoming req see
system.mem_ctrls2.rdQLenPdf::29                    27                       # What read queue length does an incoming req see
system.mem_ctrls2.rdQLenPdf::30                    31                       # What read queue length does an incoming req see
system.mem_ctrls2.rdQLenPdf::31                   233                       # What read queue length does an incoming req see
system.mem_ctrls2.wrQLenPdf::0                  10235                       # What write queue length does an incoming req see
system.mem_ctrls2.wrQLenPdf::1                  11609                       # What write queue length does an incoming req see
system.mem_ctrls2.wrQLenPdf::2                  11794                       # What write queue length does an incoming req see
system.mem_ctrls2.wrQLenPdf::3                  11821                       # What write queue length does an incoming req see
system.mem_ctrls2.wrQLenPdf::4                  11456                       # What write queue length does an incoming req see
system.mem_ctrls2.wrQLenPdf::5                   1277                       # What write queue length does an incoming req see
system.mem_ctrls2.wrQLenPdf::6                    889                       # What write queue length does an incoming req see
system.mem_ctrls2.wrQLenPdf::7                   1639                       # What write queue length does an incoming req see
system.mem_ctrls2.bytesPerActivate::samples        55884                       # Bytes accessed per row activation
system.mem_ctrls2.bytesPerActivate::mean   156.833441                       # Bytes accessed per row activation
system.mem_ctrls2.bytesPerActivate::gmean   112.168203                       # Bytes accessed per row activation
system.mem_ctrls2.bytesPerActivate::stdev   168.092336                       # Bytes accessed per row activation
system.mem_ctrls2.bytesPerActivate::0-127        31140     55.72%     55.72% # Bytes accessed per row activation
system.mem_ctrls2.bytesPerActivate::128-255        13256     23.72%     79.44% # Bytes accessed per row activation
system.mem_ctrls2.bytesPerActivate::256-383         7001     12.53%     91.97% # Bytes accessed per row activation
system.mem_ctrls2.bytesPerActivate::384-511         1668      2.98%     94.96% # Bytes accessed per row activation
system.mem_ctrls2.bytesPerActivate::512-639         1000      1.79%     96.75% # Bytes accessed per row activation
system.mem_ctrls2.bytesPerActivate::640-767          570      1.02%     97.77% # Bytes accessed per row activation
system.mem_ctrls2.bytesPerActivate::768-895          411      0.74%     98.50% # Bytes accessed per row activation
system.mem_ctrls2.bytesPerActivate::896-1023          237      0.42%     98.92% # Bytes accessed per row activation
system.mem_ctrls2.bytesPerActivate::1024-1151          601      1.08%    100.00% # Bytes accessed per row activation
system.mem_ctrls2.bytesPerActivate::total        55884                       # Bytes accessed per row activation
system.mem_ctrls2.rdPerTurnAround::samples        10469                       # Reads before turning the bus around for writes
system.mem_ctrls2.rdPerTurnAround::mean      7.282357                       # Reads before turning the bus around for writes
system.mem_ctrls2.rdPerTurnAround::stdev    31.221519                       # Reads before turning the bus around for writes
system.mem_ctrls2.rdPerTurnAround::0-127        10464     99.95%     99.95% # Reads before turning the bus around for writes
system.mem_ctrls2.rdPerTurnAround::128-255            3      0.03%     99.98% # Reads before turning the bus around for writes
system.mem_ctrls2.rdPerTurnAround::1152-1279            1      0.01%     99.99% # Reads before turning the bus around for writes
system.mem_ctrls2.rdPerTurnAround::2816-2943            1      0.01%    100.00% # Reads before turning the bus around for writes
system.mem_ctrls2.rdPerTurnAround::total        10469                       # Reads before turning the bus around for writes
system.mem_ctrls2.wrPerTurnAround::samples        10469                       # Writes before turning the bus around for reads
system.mem_ctrls2.wrPerTurnAround::mean      5.799599                       # Writes before turning the bus around for reads
system.mem_ctrls2.wrPerTurnAround::gmean     5.563873                       # Writes before turning the bus around for reads
system.mem_ctrls2.wrPerTurnAround::stdev     2.183578                       # Writes before turning the bus around for reads
system.mem_ctrls2.wrPerTurnAround::4-7           9552     91.24%     91.24% # Writes before turning the bus around for reads
system.mem_ctrls2.wrPerTurnAround::8-11           462      4.41%     95.65% # Writes before turning the bus around for reads
system.mem_ctrls2.wrPerTurnAround::12-15          183      1.75%     97.40% # Writes before turning the bus around for reads
system.mem_ctrls2.wrPerTurnAround::16-19          272      2.60%    100.00% # Writes before turning the bus around for reads
system.mem_ctrls2.wrPerTurnAround::total        10469                       # Writes before turning the bus around for reads
system.mem_ctrls2.totQLat                  3249154475                       # Total ticks spent queuing
system.mem_ctrls2.totMemAccLat             4678804475                       # Total ticks spent from burst creation until serviced by the DRAM
system.mem_ctrls2.totBusLat                 381240000                       # Total ticks spent in databus transfers
system.mem_ctrls2.avgQLat                    42612.98                       # Average queueing delay per DRAM burst
system.mem_ctrls2.avgBusLat                   5000.00                       # Average bus latency per DRAM burst
system.mem_ctrls2.avgMemAccLat               61362.98                       # Average memory access latency per DRAM burst
system.mem_ctrls2.avgRdBW                      136.19                       # Average DRAM read bandwidth in MiByte/s
system.mem_ctrls2.avgWrBW                      108.45                       # Average achieved write bandwidth in MiByte/s
system.mem_ctrls2.avgRdBWSys                   136.22                       # Average system read bandwidth in MiByte/s
system.mem_ctrls2.avgWrBWSys                   108.45                       # Average system write bandwidth in MiByte/s
system.mem_ctrls2.peakBW                     12800.00                       # Theoretical peak bandwidth in MiByte/s
system.mem_ctrls2.busUtil                        1.91                       # Data bus utilization in percentage
system.mem_ctrls2.busUtilRead                    1.06                       # Data bus utilization in percentage for reads
system.mem_ctrls2.busUtilWrite                   0.85                       # Data bus utilization in percentage for writes
system.mem_ctrls2.avgRdQLen                      1.12                       # Average read queue length when enqueuing
system.mem_ctrls2.avgWrQLen                      2.93                       # Average write queue length when enqueuing
system.mem_ctrls2.readRowHits                   50148                       # Number of row buffer hits during reads
system.mem_ctrls2.writeRowHits                  30924                       # Number of row buffer hits during writes
system.mem_ctrls2.readRowHitRate                65.77                       # Row buffer hit rate for reads
system.mem_ctrls2.writeRowHitRate               50.93                       # Row buffer hit rate for writes
system.mem_ctrls2.avgGap                    261575.53                       # Average gap between requests
system.mem_ctrls2.pageHitRate                   59.19                       # Row buffer hit rate, read and write combined
system.mem_ctrls2.memoryStateTime::IDLE    8738824500                       # Time in different power states
system.mem_ctrls2.memoryStateTime::REF     1196260000                       # Time in different power states
system.mem_ctrls2.memoryStateTime::PRE_PDN            0                       # Time in different power states
system.mem_ctrls2.memoryStateTime::ACT    25890250000                       # Time in different power states
system.mem_ctrls2.memoryStateTime::ACT_PDN            0                       # Time in different power states
system.mem_ctrls2.actEnergy::0              210674520                       # Energy for activate commands per rank (pJ)
system.mem_ctrls2.actEnergy::1              211763160                       # Energy for activate commands per rank (pJ)
system.mem_ctrls2.preEnergy::0              114951375                       # Energy for precharge commands per rank (pJ)
system.mem_ctrls2.preEnergy::1              115545375                       # Energy for precharge commands per rank (pJ)
system.mem_ctrls2.readEnergy::0             300495000                       # Energy for read commands per rank (pJ)
system.mem_ctrls2.readEnergy::1             294083400                       # Energy for read commands per rank (pJ)
system.mem_ctrls2.writeEnergy::0            195806160                       # Energy for write commands per rank (pJ)
system.mem_ctrls2.writeEnergy::1            197601120                       # Energy for write commands per rank (pJ)
system.mem_ctrls2.refreshEnergy::0         2339884560                       # Energy for refresh commands per rank (pJ)
system.mem_ctrls2.refreshEnergy::1         2339884560                       # Energy for refresh commands per rank (pJ)
system.mem_ctrls2.actBackEnergy::0        13721382000                       # Energy for active background per rank (pJ)
system.mem_ctrls2.actBackEnergy::1        13214921895                       # Energy for active background per rank (pJ)
system.mem_ctrls2.preBackEnergy::0         9458595000                       # Energy for precharge background per rank (pJ)
system.mem_ctrls2.preBackEnergy::1         9902858250                       # Energy for precharge background per rank (pJ)
system.mem_ctrls2.totalEnergy::0          26341788615                       # Total energy per rank (pJ)
system.mem_ctrls2.totalEnergy::1          26276657760                       # Total energy per rank (pJ)
system.mem_ctrls2.averagePower::0          735.294272                       # Core power per rank (mW)
system.mem_ctrls2.averagePower::1          733.476235                       # Core power per rank (mW)
system.mem_ctrls3.bytes_read::ruby.dir_cntrl3      4855744                       # Number of bytes read from this memory
system.mem_ctrls3.bytes_read::total           4855744                       # Number of bytes read from this memory
system.mem_ctrls3.bytes_written::ruby.dir_cntrl3      3878400                       # Number of bytes written to this memory
system.mem_ctrls3.bytes_written::total        3878400                       # Number of bytes written to this memory
system.mem_ctrls3.num_reads::ruby.dir_cntrl3        75871                       # Number of read requests responded to by this memory
system.mem_ctrls3.num_reads::total              75871                       # Number of read requests responded to by this memory
system.mem_ctrls3.num_writes::ruby.dir_cntrl3        60600                       # Number of write requests responded to by this memory
system.mem_ctrls3.num_writes::total             60600                       # Number of write requests responded to by this memory
system.mem_ctrls3.bw_read::ruby.dir_cntrl3    135515573                       # Total read bandwidth from this memory (bytes/s)
system.mem_ctrls3.bw_read::total            135515573                       # Total read bandwidth from this memory (bytes/s)
system.mem_ctrls3.bw_write::ruby.dir_cntrl3    108239561                       # Write bandwidth from this memory (bytes/s)
system.mem_ctrls3.bw_write::total           108239561                       # Write bandwidth from this memory (bytes/s)
system.mem_ctrls3.bw_total::ruby.dir_cntrl3    243755134                       # Total bandwidth to/from this memory (bytes/s)
system.mem_ctrls3.bw_total::total           243755134                       # Total bandwidth to/from this memory (bytes/s)
system.mem_ctrls3.readReqs                      75872                       # Number of read requests accepted
system.mem_ctrls3.writeReqs                     60600                       # Number of write requests accepted
system.mem_ctrls3.readBursts                    75872                       # Number of DRAM read bursts, including those serviced by the write queue
system.mem_ctrls3.writeBursts                   60600                       # Number of DRAM write bursts, including those merged in the write queue
system.mem_ctrls3.bytesReadDRAM               4855232                       # Total number of bytes read from DRAM
system.mem_ctrls3.bytesReadWrQ                    576                       # Total number of bytes read from write queue
system.mem_ctrls3.bytesWritten                3878144                       # Total number of bytes written to DRAM
system.mem_ctrls3.bytesReadSys                4855808                       # Total read bytes from the system interface side
system.mem_ctrls3.bytesWrittenSys             3878400                       # Total written bytes from the system interface side
system.mem_ctrls3.servicedByWrQ                     9                       # Number of DRAM read bursts serviced by the write queue
system.mem_ctrls3.mergedWrBursts                    0                       # Number of DRAM write bursts merged with an existing one
system.mem_ctrls3.neitherReadNorWriteReqs            0                       # Number of requests that are neither read nor write
system.mem_ctrls3.perBankRdBursts::0             4293                       # Per bank write bursts
system.mem_ctrls3.perBankRdBursts::1             4715                       # Per bank write bursts
system.mem_ctrls3.perBankRdBursts::2             4417                       # Per bank write bursts
system.mem_ctrls3.perBankRdBursts::3             4859                       # Per bank write bursts
system.mem_ctrls3.perBankRdBursts::4             4731                       # Per bank write bursts
system.mem_ctrls3.perBankRdBursts::5             5236                       # Per bank write bursts
system.mem_ctrls3.perBankRdBursts::6             4866                       # Per bank write bursts
system.mem_ctrls3.perBankRdBursts::7             5143                       # Per bank write bursts
system.mem_ctrls3.perBankRdBursts::8             4912                       # Per bank write bursts
system.mem_ctrls3.perBankRdBursts::9             5077                       # Per bank write bursts
system.mem_ctrls3.perBankRdBursts::10            4523                       # Per bank write bursts
system.mem_ctrls3.perBankRdBursts::11            4730                       # Per bank write bursts
system.mem_ctrls3.perBankRdBursts::12            4474                       # Per bank write bursts
system.mem_ctrls3.perBankRdBursts::13            4517                       # Per bank write bursts
system.mem_ctrls3.perBankRdBursts::14            4642                       # Per bank write bursts
system.mem_ctrls3.perBankRdBursts::15            4728                       # Per bank write bursts
system.mem_ctrls3.perBankWrBursts::0             3565                       # Per bank write bursts
system.mem_ctrls3.perBankWrBursts::1             3516                       # Per bank write bursts
system.mem_ctrls3.perBankWrBursts::2             3552                       # Per bank write bursts
system.mem_ctrls3.perBankWrBursts::3             3729                       # Per bank write bursts
system.mem_ctrls3.perBankWrBursts::4             3775                       # Per bank write bursts
system.mem_ctrls3.perBankWrBursts::5             4091                       # Per bank write bursts
system.mem_ctrls3.perBankWrBursts::6             3821                       # Per bank write bursts
system.mem_ctrls3.perBankWrBursts::7             4079                       # Per bank write bursts
system.mem_ctrls3.perBankWrBursts::8             3948                       # Per bank write bursts
system.mem_ctrls3.perBankWrBursts::9             4029                       # Per bank write bursts
system.mem_ctrls3.perBankWrBursts::10            3616                       # Per bank write bursts
system.mem_ctrls3.perBankWrBursts::11            3573                       # Per bank write bursts
system.mem_ctrls3.perBankWrBursts::12            3723                       # Per bank write bursts
system.mem_ctrls3.perBankWrBursts::13            3836                       # Per bank write bursts
system.mem_ctrls3.perBankWrBursts::14            3905                       # Per bank write bursts
system.mem_ctrls3.perBankWrBursts::15            3838                       # Per bank write bursts
system.mem_ctrls3.numRdRetry                      264                       # Number of times read queue was full causing retry
system.mem_ctrls3.numWrRetry                      872                       # Number of times write queue was full causing retry
system.mem_ctrls3.totGap                  35830889000                       # Total gap between requests
system.mem_ctrls3.readPktSize::0                    0                       # Read request sizes (log2)
system.mem_ctrls3.readPktSize::1                    0                       # Read request sizes (log2)
system.mem_ctrls3.readPktSize::2                    0                       # Read request sizes (log2)
system.mem_ctrls3.readPktSize::3                    0                       # Read request sizes (log2)
system.mem_ctrls3.readPktSize::4                    0                       # Read request sizes (log2)
system.mem_ctrls3.readPktSize::5                    0                       # Read request sizes (log2)
system.mem_ctrls3.readPktSize::6                75872                       # Read request sizes (log2)
system.mem_ctrls3.writePktSize::0                   0                       # Write request sizes (log2)
system.mem_ctrls3.writePktSize::1                   0                       # Write request sizes (log2)
system.mem_ctrls3.writePktSize::2                   0                       # Write request sizes (log2)
system.mem_ctrls3.writePktSize::3                   0                       # Write request sizes (log2)
system.mem_ctrls3.writePktSize::4                   0                       # Write request sizes (log2)
system.mem_ctrls3.writePktSize::5                   0                       # Write request sizes (log2)
system.mem_ctrls3.writePktSize::6               60600                       # Write request sizes (log2)
system.mem_ctrls3.rdQLenPdf::0                  49050                       # What read queue length does an incoming req see
system.mem_ctrls3.rdQLenPdf::1                  10637                       # What read queue length does an incoming req see
system.mem_ctrls3.rdQLenPdf::2                   5453                       # What read queue length does an incoming req see
system.mem_ctrls3.rdQLenPdf::3                   2791                       # What read queue length does an incoming req see
system.mem_ctrls3.rdQLenPdf::4                   1477                       # What read queue length does an incoming req see
system.mem_ctrls3.rdQLenPdf::5                   1028                       # What read queue length does an incoming req see
system.mem_ctrls3.rdQLenPdf::6                    818                       # What read queue length does an incoming req see
system.mem_ctrls3.rdQLenPdf::7                    668                       # What read queue length does an incoming req see
system.mem_ctrls3.rdQLenPdf::8                    613                       # What read queue length does an incoming req see
system.mem_ctrls3.rdQLenPdf::9                    522                       # What read queue length does an incoming req see
system.mem_ctrls3.rdQLenPdf::10                   456                       # What read queue length does an incoming req see
system.mem_ctrls3.rdQLenPdf::11                   388                       # What read queue length does an incoming req see
system.mem_ctrls3.rdQLenPdf::12                   301                       # What read queue length does an incoming req see
system.mem_ctrls3.rdQLenPdf::13                   227                       # What read queue length does an incoming req see
system.mem_ctrls3.rdQLenPdf::14                   168                       # What read queue length does an incoming req see
system.mem_ctrls3.rdQLenPdf::15                   116                       # What read queue length does an incoming req see
system.mem_ctrls3.rdQLenPdf::16                    79                       # What read queue length does an incoming req see
system.mem_ctrls3.rdQLenPdf::17                    71                       # What read queue length does an incoming req see
system.mem_ctrls3.rdQLenPdf::18                    66                       # What read queue length does an incoming req see
system.mem_ctrls3.rdQLenPdf::19                    55                       # What read queue length does an incoming req see
system.mem_ctrls3.rdQLenPdf::20                    43                       # What read queue length does an incoming req see
system.mem_ctrls3.rdQLenPdf::21                    54                       # What read queue length does an incoming req see
system.mem_ctrls3.rdQLenPdf::22                    54                       # What read queue length does an incoming req see
system.mem_ctrls3.rdQLenPdf::23                    50                       # What read queue length does an incoming req see
system.mem_ctrls3.rdQLenPdf::24                    48                       # What read queue length does an incoming req see
[...]
system.ruby.L2Cache_Controller.MT_IIB.WB_Data_clean::total        26065                      
system.ruby.L2Cache_Controller.MT_IIB.Unblock |         126      1.49%      1.49% |         150      1.77%      3.26% |         200      2.36%      5.61% |         266      3.14%      8.75% |         146      1.72%     10.47% |         229      2.70%     13.17% |         232      2.74%     15.91% |         218      2.57%     18.48% |         293      3.46%     21.94% |         253      2.98%     24.92% |         340      4.01%     28.93% |         459      5.41%     34.34% |         325      3.83%     38.18% |         274      3.23%     41.41% |         482      5.68%     47.09% |         307      3.62%     50.71% |         331      3.90%     54.62% |         283      3.34%     57.95% |         145      1.71%     59.67% |         251      2.96%     62.63% |         268      3.16%     65.79% |         208      2.45%     68.24% |         271      3.20%     71.44% |         391      4.61%     76.05% |         430      5.07%     81.12% |         285      3.36%     84.48% |         250      2.95%     87.43% |         212      2.50%     89.93% |         217      2.56%     92.49% |         269      3.17%     95.66% |         194      2.29%     97.95% |         174      2.05%    100.00%
system.ruby.L2Cache_Controller.MT_IIB.Unblock::total         8479                      
system.ruby.L2Cache_Controller.MT_IB.L1_GETS |           0      0.00%      0.00% |           0      0.00%      0.00% |           0      0.00%      0.00% |           0      0.00%      0.00% |           0      0.00%      0.00% |           0      0.00%      0.00% |           0      0.00%      0.00% |           0      0.00%      0.00% |           0      0.00%      0.00% |           0      0.00%      0.00% |           0      0.00%      0.00% |           0      0.00%      0.00% |           1     16.67%     16.67% |           0      0.00%     16.67% |           0      0.00%     16.67% |           1     16.67%     33.33% |           0      0.00%     33.33% |           1     16.67%     50.00% |           0      0.00%     50.00% |           1     16.67%     66.67% |           0      0.00%     66.67% |           0      0.00%     66.67% |           0      0.00%     66.67% |           0      0.00%     66.67% |           0      0.00%     66.67% |           1     16.67%     83.33% |           0      0.00%     83.33% |           0      0.00%     83.33% |           0      0.00%     83.33% |           1     16.67%    100.00% |           0      0.00%    100.00% |           0      0.00%    100.00%
system.ruby.L2Cache_Controller.MT_IB.L1_GETS::total            6                      
system.ruby.L2Cache_Controller.MT_IB.L1_GETX |           0      0.00%      0.00% |           0      0.00%      0.00% |           1     33.33%     33.33% |           0      0.00%     33.33% |           0      0.00%     33.33% |           0      0.00%     33.33% |           0      0.00%     33.33% |           0      0.00%     33.33% |           0      0.00%     33.33% |           0      0.00%     33.33% |           1     33.33%     66.67% |           0      0.00%     66.67% |           0      0.00%     66.67% |           0      0.00%     66.67% |           0      0.00%     66.67% |           0      0.00%     66.67% |           0      0.00%     66.67% |           0      0.00%     66.67% |           0      0.00%     66.67% |           0      0.00%     66.67% |           0      0.00%     66.67% |           0      0.00%     66.67% |           0      0.00%     66.67% |           0      0.00%     66.67% |           0      0.00%     66.67% |           1     33.33%    100.00% |           0      0.00%    100.00% |           0      0.00%    100.00% |           0      0.00%    100.00% |           0      0.00%    100.00% |           0      0.00%    100.00% |           0      0.00%    100.00%
system.ruby.L2Cache_Controller.MT_IB.L1_GETX::total            3                      
system.ruby.L2Cache_Controller.MT_IB.L1_UPGRADE |           2      1.85%      1.85% |           0      0.00%      1.85% |           2      1.85%      3.70% |           2      1.85%      5.56% |           4      3.70%      9.26% |           1      0.93%     10.19% |           0      0.00%     10.19% |           1      0.93%     11.11% |           6      5.56%     16.67% |           1      0.93%     17.59% |           7      6.48%     24.07% |           2      1.85%     25.93% |           3      2.78%     28.70% |           2      1.85%     30.56% |           3      2.78%     33.33% |           5      4.63%     37.96% |           4      3.70%     41.67% |           7      6.48%     48.15% |           1      0.93%     49.07% |           3      2.78%     51.85% |           5      4.63%     56.48% |           8      7.41%     63.89% |           4      3.70%     67.59% |           4      3.70%     71.30% |          10      9.26%     80.56% |           3      2.78%     83.33% |           1      0.93%     84.26% |           5      4.63%     88.89% |           0      0.00%     88.89% |           7      6.48%     95.37% |           4      3.70%     99.07% |           1      0.93%    100.00%
system.ruby.L2Cache_Controller.MT_IB.L1_UPGRADE::total          108                      
system.ruby.L2Cache_Controller.MT_IB.WB_Data |         121      1.55%      1.55% |         141      1.81%      3.35% |         188      2.41%      5.76% |         250      3.20%      8.96% |         141      1.81%     10.77% |         213      2.73%     13.49% |         215      2.75%     16.25% |         201      2.57%     18.82% |         273      3.50%     22.31% |         233      2.98%     25.30% |         312      3.99%     29.29% |         414      5.30%     34.59% |         291      3.73%     38.32% |         253      3.24%     41.56% |         445      5.70%     47.25% |         285      3.65%     50.90% |         310      3.97%     54.87% |         258      3.30%     58.17% |         130      1.66%     59.84% |         231      2.96%     62.80% |         245      3.14%     65.93% |         186      2.38%     68.31% |         244      3.12%     71.44% |         370      4.74%     76.17% |         388      4.97%     81.14% |         262      3.35%     84.50% |         219      2.80%     87.30% |         200      2.56%     89.86% |         201      2.57%     92.43% |         246      3.15%     95.58% |         181      2.32%     97.90% |         164      2.10%    100.00%
system.ruby.L2Cache_Controller.MT_IB.WB_Data::total         7811                      
system.ruby.L2Cache_Controller.MT_IB.WB_Data_clean |           5      0.75%      0.75% |           9      1.35%      2.10% |          12      1.80%      3.89% |          16      2.40%      6.29% |           5      0.75%      7.04% |          16      2.40%      9.43% |          17      2.54%     11.98% |          17      2.54%     14.52% |          20      2.99%     17.51% |          20      2.99%     20.51% |          28      4.19%     24.70% |          45      6.74%     31.44% |          34      5.09%     36.53% |          21      3.14%     39.67% |          37      5.54%     45.21% |          22      3.29%     48.50% |          21      3.14%     51.65% |          25      3.74%     55.39% |          15      2.25%     57.63% |          20      2.99%     60.63% |          23      3.44%     64.07% |          22      3.29%     67.37% |          27      4.04%     71.41% |          21      3.14%     74.55% |          42      6.29%     80.84% |          23      3.44%     84.28% |          31      4.64%     88.92% |          12      1.80%     90.72% |          16      2.40%     93.11% |          23      3.44%     96.56% |          13      1.95%     98.50% |          10      1.50%    100.00%
system.ruby.L2Cache_Controller.MT_IB.WB_Data_clean::total          668                      
system.ruby.L2Cache_Controller.MT_SB.L1_GETS |          26      3.32%      3.32% |          20      2.56%      5.88% |          20      2.56%      8.44% |          24      3.07%     11.51% |          24      3.07%     14.58% |          22      2.81%     17.39% |          21      2.69%     20.08% |          20      2.56%     22.63% |          27      3.45%     26.09% |          36      4.60%     30.69% |          29      3.71%     34.40% |          22      2.81%     37.21% |          24      3.07%     40.28% |          23      2.94%     43.22% |          26      3.32%     46.55% |          31      3.96%     50.51% |          27      3.45%     53.96% |          29      3.71%     57.67% |          25      3.20%     60.87% |          27      3.45%     64.32% |          20      2.56%     66.88% |          24      3.07%     69.95% |          14      1.79%     71.74% |          28      3.58%     75.32% |          20      2.56%     77.88% |          23      2.94%     80.82% |          27      3.45%     84.27% |          21      2.69%     86.96% |          24      3.07%     90.03% |          27      3.45%     93.48% |          19      2.43%     95.91% |          32      4.09%    100.00%
system.ruby.L2Cache_Controller.MT_SB.L1_GETS::total          782                      
system.ruby.L2Cache_Controller.MT_SB.L1_GETX |          22      3.87%      3.87% |          16      2.82%      6.69% |          17      2.99%      9.68% |          11      1.94%     11.62% |          13      2.29%     13.91% |          20      3.52%     17.43% |          19      3.35%     20.77% |          17      2.99%     23.77% |          12      2.11%     25.88% |          20      3.52%     29.40% |          20      3.52%     32.92% |          18      3.17%     36.09% |          21      3.70%     39.79% |          14      2.46%     42.25% |          21      3.70%     45.95% |          17      2.99%     48.94% |          22      3.87%     52.82% |          14      2.46%     55.28% |          19      3.35%     58.63% |          27      4.75%     63.38% |          19      3.35%     66.73% |          14      2.46%     69.19% |          14      2.46%     71.65% |          24      4.23%     75.88% |          19      3.35%     79.23% |          19      3.35%     82.57% |          19      3.35%     85.92% |          12      2.11%     88.03% |          12      2.11%     90.14% |          22      3.87%     94.01% |          19      3.35%     97.36% |          15      2.64%    100.00%
system.ruby.L2Cache_Controller.MT_SB.L1_GETX::total          568                      
system.ruby.L2Cache_Controller.MT_SB.L1_UPGRADE |          10      3.21%      3.21% |          13      4.17%      7.37% |           8      2.56%      9.94% |          15      4.81%     14.74% |           7      2.24%     16.99% |           7      2.24%     19.23% |           6      1.92%     21.15% |           5      1.60%     22.76% |           8      2.56%     25.32% |          12      3.85%     29.17% |           9      2.88%     32.05% |          15      4.81%     36.86% |          14      4.49%     41.35% |           7      2.24%     43.59% |           6      1.92%     45.51% |           5      1.60%     47.12% |           7      2.24%     49.36% |          11      3.53%     52.88% |           8      2.56%     55.45% |          13      4.17%     59.62% |          13      4.17%     63.78% |           9      2.88%     66.67% |           7      2.24%     68.91% |          13      4.17%     73.08% |          10      3.21%     76.28% |          10      3.21%     79.49% |          13      4.17%     83.65% |          10      3.21%     86.86% |          13      4.17%     91.03% |          12      3.85%     94.87% |           6      1.92%     96.79% |          10      3.21%    100.00%
system.ruby.L2Cache_Controller.MT_SB.L1_UPGRADE::total          312                      
system.ruby.L2Cache_Controller.MT_SB.L1_PUTX |           0      0.00%      0.00% |           0      0.00%      0.00% |           0      0.00%      0.00% |           0      0.00%      0.00% |           0      0.00%      0.00% |           0      0.00%      0.00% |           0      0.00%      0.00% |           0      0.00%      0.00% |           0      0.00%      0.00% |           0      0.00%      0.00% |           0      0.00%      0.00% |           0      0.00%      0.00% |           0      0.00%      0.00% |           0      0.00%      0.00% |           0      0.00%      0.00% |           0      0.00%      0.00% |           0      0.00%      0.00% |           0      0.00%      0.00% |           0      0.00%      0.00% |           0      0.00%      0.00% |           1     33.33%     33.33% |           0      0.00%     33.33% |           0      0.00%     33.33% |           0      0.00%     33.33% |           1     33.33%     66.67% |           0      0.00%     66.67% |           0      0.00%     66.67% |           0      0.00%     66.67% |           0      0.00%     66.67% |           0      0.00%     66.67% |           1     33.33%    100.00% |           0      0.00%    100.00%
system.ruby.L2Cache_Controller.MT_SB.L1_PUTX::total            3                      
system.ruby.L2Cache_Controller.MT_SB.Unblock |        7342      3.25%      3.25% |        7152      3.17%      6.42% |        7131      3.16%      9.58% |        7001      3.10%     12.68% |        7265      3.22%     15.89% |        7107      3.15%     19.04% |        7071      3.13%     22.17% |        7105      3.15%     25.32% |        7100      3.14%     28.46% |        6989      3.09%     31.56% |        6996      3.10%     34.65% |        6835      3.03%     37.68% |        7093      3.14%     40.82% |        6983      3.09%     43.91% |        6862      3.04%     46.95% |        6993      3.10%     50.05% |        7116      3.15%     53.20% |        6968      3.09%     56.29% |        7143      3.16%     59.45% |        7042      3.12%     62.57% |        7138      3.16%     65.73% |        7022      3.11%     68.84% |        6967      3.09%     71.92% |        6869      3.04%     74.97% |        6992      3.10%     78.06% |        6986      3.09%     81.15% |        6991      3.10%     84.25% |        7013      3.11%     87.36% |        7261      3.22%     90.57% |        7050      3.12%     93.69% |        7141      3.16%     96.86% |        7101      3.14%    100.00%
system.ruby.L2Cache_Controller.MT_SB.Unblock::total       225825                      
system.ruby.SimicsNetworkPortInterface_Controller.MessageSend |      306848     18.15%     18.15% |      845298     50.00%     68.15% |       35092      2.08%     70.23% |       38086      2.25%     72.48% |       35507      2.10%     74.58% |       37700      2.23%     76.81% |       35692      2.11%     78.92% |       37269      2.20%     81.12% |       30667      1.81%     82.94% |       31798      1.88%     84.82% |       30284      1.79%     86.61% |       32077      1.90%     88.51% |       34630      2.05%     90.56% |       32359      1.91%     92.47% |       28649      1.69%     94.17% |       30557      1.81%     95.97% |       32612      1.93%     97.90% |       35471      2.10%    100.00% |           0      0.00%    100.00% |           0      0.00%    100.00% |           0      0.00%    100.00% |           0      0.00%    100.00% |           0      0.00%    100.00% |           0      0.00%    100.00% |           0      0.00%    100.00% |           0      0.00%    100.00% |           0      0.00%    100.00% |           0      0.00%    100.00% |           0      0.00%    100.00% |           0      0.00%    100.00% |           0      0.00%    100.00% |           0      0.00%    100.00%
system.ruby.SimicsNetworkPortInterface_Controller.MessageSend::total      1690596                      
system.ruby.SimicsNetworkPortInterface_Controller.MessageRecv |      306848     18.15%     18.15% |      845298     50.00%     68.15% |       35092      2.08%     70.23% |       38086      2.25%     72.48% |       35507      2.10%     74.58% |       37700      2.23%     76.81% |       35692      2.11%     78.92% |       37269      2.20%     81.12% |       30667      1.81%     82.94% |       31798      1.88%     84.82% |       30284      1.79%     86.61% |       32077      1.90%     88.51% |       34630      2.05%     90.56% |       32359      1.91%     92.47% |       28649      1.69%     94.17% |       30557      1.81%     95.97% |       32612      1.93%     97.90% |       35471      2.10%    100.00% |           0      0.00%    100.00% |           0      0.00%    100.00% |           0      0.00%    100.00% |           0      0.00%    100.00% |           0      0.00%    100.00% |           0      0.00%    100.00% |           0      0.00%    100.00% |           0      0.00%    100.00% |           0      0.00%    100.00% |           0      0.00%    100.00% |           0      0.00%    100.00% |           0      0.00%    100.00% |           0      0.00%    100.00% |           0      0.00%    100.00%
system.ruby.SimicsNetworkPortInterface_Controller.MessageRecv::total      1690596                      
system.ruby.SimicsNetworkPortInterface_Controller.A.MessageSend |      306848     18.15%     18.15% |      845298     50.00%     68.15% |       35092      2.08%     70.23% |       38086      2.25%     72.48% |       35507      2.10%     74.58% |       37700      2.23%     76.81% |       35692      2.11%     78.92% |       37269      2.20%     81.12% |       30667      1.81%     82.94% |       31798      1.88%     84.82% |       30284      1.79%     86.61% |       32077      1.90%     88.51% |       34630      2.05%     90.56% |       32359      1.91%     92.47% |       28649      1.69%     94.17% |       30557      1.81%     95.97% |       32612      1.93%     97.90% |       35471      2.10%    100.00% |           0      0.00%    100.00% |           0      0.00%    100.00% |           0      0.00%    100.00% |           0      0.00%    100.00% |           0      0.00%    100.00% |           0      0.00%    100.00% |           0      0.00%    100.00% |           0      0.00%    100.00% |           0      0.00%    100.00% |           0      0.00%    100.00% |           0      0.00%    100.00% |           0      0.00%    100.00% |           0      0.00%    100.00% |           0      0.00%    100.00%
system.ruby.SimicsNetworkPortInterface_Controller.A.MessageSend::total      1690596                      
system.ruby.SimicsNetworkPortInterface_Controller.A.MessageRecv |      306848     18.15%     18.15% |      845298     50.00%     68.15% |       35092      2.08%     70.23% |       38086      2.25%     72.48% |       35507      2.10%     74.58% |       37700      2.23%     76.81% |       35692      2.11%     78.92% |       37269      2.20%     81.12% |       30667      1.81%     82.94% |       31798      1.88%     84.82% |       30284      1.79%     86.61% |       32077      1.90%     88.51% |       34630      2.05%     90.56% |       32359      1.91%     92.47% |       28649      1.69%     94.17% |       30557      1.81%     95.97% |       32612      1.93%     97.90% |       35471      2.10%    100.00% |           0      0.00%    100.00% |           0      0.00%    100.00% |           0      0.00%    100.00% |           0      0.00%    100.00% |           0      0.00%    100.00% |           0      0.00%    100.00% |           0      0.00%    100.00% |           0      0.00%    100.00% |           0      0.00%    100.00% |           0      0.00%    100.00% |           0      0.00%    100.00% |           0      0.00%    100.00% |           0      0.00%    100.00% |           0      0.00%    100.00%
system.ruby.SimicsNetworkPortInterface_Controller.A.MessageRecv::total      1690596                      
system.switch_cpus.kern.inst.arm                    0                       # number of arm instructions executed
system.switch_cpus.kern.inst.quiesce                0                       # number of quiesce instructions executed

---------- End Simulation Statistics   ----------
