
---------- Begin Simulation Statistics ----------
sim_seconds                                  0.056722                       # Number of seconds simulated
sim_ticks                                 56722397000                       # Number of ticks simulated
final_tick                               5232890475500                       # Number of ticks from beginning of simulation (restored from checkpoints and never reset)
sim_freq                                 1000000000000                       # Frequency of simulated ticks
host_inst_rate                                  29646                       # Simulator instruction rate (inst/s)
host_op_rate                                    52607                       # Simulator op (including micro ops) rate (op/s)
host_tick_rate                               74653837                       # Simulator tick rate (ticks/s)
host_mem_usage                                3639524                       # Number of bytes of host memory used
host_seconds                                   759.81                       # Real time elapsed on the host
sim_insts                                    22525168                       # Number of instructions simulated
sim_ops                                      39970759                       # Number of ops (including micro ops) simulated
system.voltage_domain.voltage                       1                       # Voltage in Volts
system.clk_domain.clock                           500                       # Clock period in ticks
system.mem_ctrls0.bytes_read::ruby.dir_cntrl0     12588864                       # Number of bytes read from this memory
system.mem_ctrls0.bytes_read::total          12588864                       # Number of bytes read from this memory
system.mem_ctrls0.bytes_written::ruby.dir_cntrl0      8032384                       # Number of bytes written to this memory
system.mem_ctrls0.bytes_written::total        8032384                       # Number of bytes written to this memory
system.mem_ctrls0.num_reads::ruby.dir_cntrl0       196701                       # Number of read requests responded to by this memory
system.mem_ctrls0.num_reads::total             196701                       # Number of read requests responded to by this memory
system.mem_ctrls0.num_writes::ruby.dir_cntrl0       125506                       # Number of write requests responded to by this memory
system.mem_ctrls0.num_writes::total            125506                       # Number of write requests responded to by this memory
system.mem_ctrls0.bw_read::ruby.dir_cntrl0    221938153                       # Total read bandwidth from this memory (bytes/s)
system.mem_ctrls0.bw_read::total            221938153                       # Total read bandwidth from this memory (bytes/s)
system.mem_ctrls0.bw_write::ruby.dir_cntrl0    141608684                       # Write bandwidth from this memory (bytes/s)
system.mem_ctrls0.bw_write::total           141608684                       # Write bandwidth from this memory (bytes/s)
system.mem_ctrls0.bw_total::ruby.dir_cntrl0    363546837                       # Total bandwidth to/from this memory (bytes/s)
system.mem_ctrls0.bw_total::total           363546837                       # Total bandwidth to/from this memory (bytes/s)
system.mem_ctrls0.readReqs                     196701                       # Number of read requests accepted
system.mem_ctrls0.writeReqs                    125506                       # Number of write requests accepted
system.mem_ctrls0.readBursts                   196701                       # Number of DRAM read bursts, including those serviced by the write queue
system.mem_ctrls0.writeBursts                  125506                       # Number of DRAM write bursts, including those merged in the write queue
system.mem_ctrls0.bytesReadDRAM              12587520                       # Total number of bytes read from DRAM
system.mem_ctrls0.bytesReadWrQ                   1344                       # Total number of bytes read from write queue
system.mem_ctrls0.bytesWritten                8032256                       # Total number of bytes written to DRAM
system.mem_ctrls0.bytesReadSys               12588864                       # Total read bytes from the system interface side
system.mem_ctrls0.bytesWrittenSys             8032384                       # Total written bytes from the system interface side
system.mem_ctrls0.servicedByWrQ                    21                       # Number of DRAM read bursts serviced by the write queue
system.mem_ctrls0.mergedWrBursts                    0                       # Number of DRAM write bursts merged with an existing one
system.mem_ctrls0.neitherReadNorWriteReqs            0                       # Number of requests that are neither read nor write
system.mem_ctrls0.perBankRdBursts::0            12081                       # Per bank write bursts
system.mem_ctrls0.perBankRdBursts::1            12224                       # Per bank write bursts
system.mem_ctrls0.perBankRdBursts::2            11993                       # Per bank write bursts
system.mem_ctrls0.perBankRdBursts::3            12426                       # Per bank write bursts
system.mem_ctrls0.perBankRdBursts::4            12148                       # Per bank write bursts
system.mem_ctrls0.perBankRdBursts::5            12256                       # Per bank write bursts
system.mem_ctrls0.perBankRdBursts::6            12574                       # Per bank write bursts
system.mem_ctrls0.perBankRdBursts::7            12656                       # Per bank write bursts
system.mem_ctrls0.perBankRdBursts::8            12352                       # Per bank write bursts
system.mem_ctrls0.perBankRdBursts::9            12787                       # Per bank write bursts
system.mem_ctrls0.perBankRdBursts::10           12341                       # Per bank write bursts
system.mem_ctrls0.perBankRdBursts::11           12672                       # Per bank write bursts
system.mem_ctrls0.perBankRdBursts::12           12172                       # Per bank write bursts
system.mem_ctrls0.perBankRdBursts::13           11959                       # Per bank write bursts
system.mem_ctrls0.perBankRdBursts::14           12219                       # Per bank write bursts
system.mem_ctrls0.perBankRdBursts::15           11820                       # Per bank write bursts
system.mem_ctrls0.perBankWrBursts::0             7768                       # Per bank write bursts
system.mem_ctrls0.perBankWrBursts::1             7641                       # Per bank write bursts
system.mem_ctrls0.perBankWrBursts::2             7803                       # Per bank write bursts
system.mem_ctrls0.perBankWrBursts::3             7843                       # Per bank write bursts
system.mem_ctrls0.perBankWrBursts::4             7804                       # Per bank write bursts
system.mem_ctrls0.perBankWrBursts::5             7919                       # Per bank write bursts
system.mem_ctrls0.perBankWrBursts::6             7947                       # Per bank write bursts
system.mem_ctrls0.perBankWrBursts::7             8040                       # Per bank write bursts
system.mem_ctrls0.perBankWrBursts::8             7942                       # Per bank write bursts
system.mem_ctrls0.perBankWrBursts::9             8048                       # Per bank write bursts
system.mem_ctrls0.perBankWrBursts::10            7861                       # Per bank write bursts
system.mem_ctrls0.perBankWrBursts::11            7876                       # Per bank write bursts
system.mem_ctrls0.perBankWrBursts::12            7735                       # Per bank write bursts
system.mem_ctrls0.perBankWrBursts::13            7749                       # Per bank write bursts
system.mem_ctrls0.perBankWrBursts::14            7920                       # Per bank write bursts
system.mem_ctrls0.perBankWrBursts::15            7608                       # Per bank write bursts
system.mem_ctrls0.numRdRetry                   106516                       # Number of times read queue was full causing retry
system.mem_ctrls0.numWrRetry                     7622                       # Number of times write queue was full causing retry
system.mem_ctrls0.totGap                  56721879000                       # Total gap between requests
system.mem_ctrls0.readPktSize::0                    0                       # Read request sizes (log2)
system.mem_ctrls0.readPktSize::1                    0                       # Read request sizes (log2)
system.mem_ctrls0.readPktSize::2                    0                       # Read request sizes (log2)
system.mem_ctrls0.readPktSize::3                    0                       # Read request sizes (log2)
system.mem_ctrls0.readPktSize::4                    0                       # Read request sizes (log2)
system.mem_ctrls0.readPktSize::5                    0                       # Read request sizes (log2)
system.mem_ctrls0.readPktSize::6               196701                       # Read request sizes (log2)
system.mem_ctrls0.writePktSize::0                   0                       # Write request sizes (log2)
system.mem_ctrls0.writePktSize::1                   0                       # Write request sizes (log2)
system.mem_ctrls0.writePktSize::2                   0                       # Write request sizes (log2)
system.mem_ctrls0.writePktSize::3                   0                       # Write request sizes (log2)
system.mem_ctrls0.writePktSize::4                   0                       # Write request sizes (log2)
system.mem_ctrls0.writePktSize::5                   0                       # Write request sizes (log2)
system.mem_ctrls0.writePktSize::6              125506                       # Write request sizes (log2)
system.mem_ctrls0.rdQLenPdf::0                  68372                       # What read queue length does an incoming req see
system.mem_ctrls0.rdQLenPdf::1                   2407                       # What read queue length does an incoming req see
system.mem_ctrls0.rdQLenPdf::2                   1279                       # What read queue length does an incoming req see
system.mem_ctrls0.rdQLenPdf::3                    609                       # What read queue length does an incoming req see
system.mem_ctrls0.rdQLenPdf::4                    615                       # What read queue length does an incoming req see
system.mem_ctrls0.rdQLenPdf::5                    640                       # What read queue length does an incoming req see
system.mem_ctrls0.rdQLenPdf::6                    615                       # What read queue length does an incoming req see
system.mem_ctrls0.rdQLenPdf::7                    593                       # What read queue length does an incoming req see
system.mem_ctrls0.rdQLenPdf::8                    577                       # What read queue length does an incoming req see
system.mem_ctrls0.rdQLenPdf::9                    569                       # What read queue length does an incoming req see
system.mem_ctrls0.rdQLenPdf::10                   573                       # What read queue length does an incoming req see
system.mem_ctrls0.rdQLenPdf::11                   550                       # What read queue length does an incoming req see
system.mem_ctrls0.rdQLenPdf::12                   536                       # What read queue length does an incoming req see
system.mem_ctrls0.rdQLenPdf::13                   602                       # What read queue length does an incoming req see
system.mem_ctrls0.rdQLenPdf::14                   535                       # What read queue length does an incoming req see
system.mem_ctrls0.rdQLenPdf::15                   514                       # What read queue length does an incoming req see
system.mem_ctrls0.rdQLenPdf::16                   489                       # What read queue length does an incoming req see
system.mem_ctrls0.rdQLenPdf::17                   448                       # What read queue length does an incoming req see
system.mem_ctrls0.rdQLenPdf::18                   451                       # What read queue length does an incoming req see
system.mem_ctrls0.rdQLenPdf::19                   442                       # What read queue length does an incoming req see
system.mem_ctrls0.rdQLenPdf::20                   461                       # What read queue length does an incoming req see
system.mem_ctrls0.rdQLenPdf::21                   433                       # What read queue length does an incoming req see
system.mem_ctrls0.rdQLenPdf::22                   463                       # What read queue length does an incoming req see
system.mem_ctrls0.rdQLenPdf::23                   478                       # What read queue length does an incoming req see
system.mem_ctrls0.rdQLenPdf::24                   519                       # What read queue length does an incoming req see
system.mem_ctrls0.rdQLenPdf::25                   545                       # What read queue length does an incoming req see
system.mem_ctrls0.rdQLenPdf::26                   574                       # What read queue length does an incoming req see
system.mem_ctrls0.rdQLenPdf::27                   611                       # What read queue length does an incoming req see
system.mem_ctrls0.rdQLenPdf::28                   687                       # What read queue length does an incoming req see
system.mem_ctrls0.rdQLenPdf::29                   732                       # What read queue length does an incoming req see
system.mem_ctrls0.rdQLenPdf::30                  1046                       # What read queue length does an incoming req see
system.mem_ctrls0.rdQLenPdf::31                108715                       # What read queue length does an incoming req see
system.mem_ctrls0.wrQLenPdf::0                  16728                       # What write queue length does an incoming req see
system.mem_ctrls0.wrQLenPdf::1                  17705                       # What write queue length does an incoming req see
system.mem_ctrls0.wrQLenPdf::2                  18358                       # What write queue length does an incoming req see
system.mem_ctrls0.wrQLenPdf::3                  18984                       # What write queue length does an incoming req see
system.mem_ctrls0.wrQLenPdf::4                  19607                       # What write queue length does an incoming req see
system.mem_ctrls0.wrQLenPdf::5                   8407                       # What write queue length does an incoming req see
system.mem_ctrls0.wrQLenPdf::6                   9999                       # What write queue length does an incoming req see
system.mem_ctrls0.wrQLenPdf::7                  15718                       # What write queue length does an incoming req see
system.mem_ctrls0.bytesPerActivate::samples        97993                       # Bytes accessed per row activation
system.mem_ctrls0.bytesPerActivate::mean   210.407192                       # Bytes accessed per row activation
system.mem_ctrls0.bytesPerActivate::gmean   156.331946                       # Bytes accessed per row activation
system.mem_ctrls0.bytesPerActivate::stdev   177.270700                       # Bytes accessed per row activation
system.mem_ctrls0.bytesPerActivate::0-127        32771     33.44%     33.44% # Bytes accessed per row activation
system.mem_ctrls0.bytesPerActivate::128-255        28750     29.34%     62.78% # Bytes accessed per row activation
system.mem_ctrls0.bytesPerActivate::256-383        23854     24.34%     87.12% # Bytes accessed per row activation
system.mem_ctrls0.bytesPerActivate::384-511         5616      5.73%     92.85% # Bytes accessed per row activation
system.mem_ctrls0.bytesPerActivate::512-639         3443      3.51%     96.37% # Bytes accessed per row activation
system.mem_ctrls0.bytesPerActivate::640-767         1261      1.29%     97.65% # Bytes accessed per row activation
system.mem_ctrls0.bytesPerActivate::768-895          705      0.72%     98.37% # Bytes accessed per row activation
system.mem_ctrls0.bytesPerActivate::896-1023          507      0.52%     98.89% # Bytes accessed per row activation
system.mem_ctrls0.bytesPerActivate::1024-1151         1086      1.11%    100.00% # Bytes accessed per row activation
system.mem_ctrls0.bytesPerActivate::total        97993                       # Bytes accessed per row activation
system.mem_ctrls0.rdPerTurnAround::samples        17350                       # Reads before turning the bus around for writes
system.mem_ctrls0.rdPerTurnAround::mean     11.335908                       # Reads before turning the bus around for writes
system.mem_ctrls0.rdPerTurnAround::stdev    32.110554                       # Reads before turning the bus around for writes
system.mem_ctrls0.rdPerTurnAround::0-127        17342     99.95%     99.95% # Reads before turning the bus around for writes
system.mem_ctrls0.rdPerTurnAround::128-255            7      0.04%     99.99% # Reads before turning the bus around for writes
system.mem_ctrls0.rdPerTurnAround::3968-4095            1      0.01%    100.00% # Reads before turning the bus around for writes
system.mem_ctrls0.rdPerTurnAround::total        17350                       # Reads before turning the bus around for writes
system.mem_ctrls0.wrPerTurnAround::samples        17350                       # Writes before turning the bus around for reads
system.mem_ctrls0.wrPerTurnAround::mean      7.233660                       # Writes before turning the bus around for reads
system.mem_ctrls0.wrPerTurnAround::gmean     6.545905                       # Writes before turning the bus around for reads
system.mem_ctrls0.wrPerTurnAround::stdev     3.650637                       # Writes before turning the bus around for reads
system.mem_ctrls0.wrPerTurnAround::4-7          12260     70.66%     70.66% # Writes before turning the bus around for reads
system.mem_ctrls0.wrPerTurnAround::8-11          2059     11.87%     82.53% # Writes before turning the bus around for reads
system.mem_ctrls0.wrPerTurnAround::12-15         1974     11.38%     93.91% # Writes before turning the bus around for reads
system.mem_ctrls0.wrPerTurnAround::16-19         1057      6.09%    100.00% # Writes before turning the bus around for reads
system.mem_ctrls0.wrPerTurnAround::total        17350                       # Writes before turning the bus around for reads
system.mem_ctrls0.totQLat                 38201553811                       # Total ticks spent queuing
system.mem_ctrls0.totMemAccLat            41889303811                       # Total ticks spent from burst creation until serviced by the DRAM
system.mem_ctrls0.totBusLat                 983400000                       # Total ticks spent in databus transfers
system.mem_ctrls0.avgQLat                   194232.02                       # Average queueing delay per DRAM burst
system.mem_ctrls0.avgBusLat                   5000.00                       # Average bus latency per DRAM burst
system.mem_ctrls0.avgMemAccLat              212982.02                       # Average memory access latency per DRAM burst
system.mem_ctrls0.avgRdBW                      221.91                       # Average DRAM read bandwidth in MiByte/s
system.mem_ctrls0.avgWrBW                      141.61                       # Average achieved write bandwidth in MiByte/s
system.mem_ctrls0.avgRdBWSys                   221.94                       # Average system read bandwidth in MiByte/s
system.mem_ctrls0.avgWrBWSys                   141.61                       # Average system write bandwidth in MiByte/s
system.mem_ctrls0.peakBW                     12800.00                       # Theoretical peak bandwidth in MiByte/s
system.mem_ctrls0.busUtil                        2.84                       # Data bus utilization in percentage
system.mem_ctrls0.busUtilRead                    1.73                       # Data bus utilization in percentage for reads
system.mem_ctrls0.busUtilWrite                   1.11                       # Data bus utilization in percentage for writes
system.mem_ctrls0.avgRdQLen                      1.69                       # Average read queue length when enqueuing
system.mem_ctrls0.avgWrQLen                      2.94                       # Average write queue length when enqueuing
system.mem_ctrls0.readRowHits                  147065                       # Number of row buffer hits during reads
system.mem_ctrls0.writeRowHits                  77112                       # Number of row buffer hits during writes
system.mem_ctrls0.readRowHitRate                74.77                       # Row buffer hit rate for reads
system.mem_ctrls0.writeRowHitRate               61.44                       # Row buffer hit rate for writes
system.mem_ctrls0.avgGap                    176041.73                       # Average gap between requests
system.mem_ctrls0.pageHitRate                   69.58                       # Row buffer hit rate, read and write combined
system.mem_ctrls0.memoryStateTime::IDLE   11626781250                       # Time in different power states
system.mem_ctrls0.memoryStateTime::REF     1893840000                       # Time in different power states
system.mem_ctrls0.memoryStateTime::PRE_PDN            0                       # Time in different power states
system.mem_ctrls0.memoryStateTime::ACT    43194733250                       # Time in different power states
system.mem_ctrls0.memoryStateTime::ACT_PDN            0                       # Time in different power states
system.mem_ctrls0.actEnergy::0              373494240                       # Energy for activate commands per rank (pJ)
system.mem_ctrls0.actEnergy::1              366780960                       # Energy for activate commands per rank (pJ)
system.mem_ctrls0.preEnergy::0              203791500                       # Energy for precharge commands per rank (pJ)
system.mem_ctrls0.preEnergy::1              200128500                       # Energy for precharge commands per rank (pJ)
system.mem_ctrls0.readEnergy::0             766201800                       # Energy for read commands per rank (pJ)
system.mem_ctrls0.readEnergy::1             765523200                       # Energy for read commands per rank (pJ)
system.mem_ctrls0.writeEnergy::0            406263600                       # Energy for write commands per rank (pJ)
system.mem_ctrls0.writeEnergy::1            406315440                       # Energy for write commands per rank (pJ)
system.mem_ctrls0.refreshEnergy::0         3704351040                       # Energy for refresh commands per rank (pJ)
system.mem_ctrls0.refreshEnergy::1         3704351040                       # Energy for refresh commands per rank (pJ)
system.mem_ctrls0.actBackEnergy::0        22301050500                       # Energy for active background per rank (pJ)
system.mem_ctrls0.actBackEnergy::1        21779923725                       # Energy for active background per rank (pJ)
system.mem_ctrls0.preBackEnergy::0        14466879750                       # Energy for precharge background per rank (pJ)
system.mem_ctrls0.preBackEnergy::1        14924008500                       # Energy for precharge background per rank (pJ)
system.mem_ctrls0.totalEnergy::0          42222032430                       # Total energy per rank (pJ)
system.mem_ctrls0.totalEnergy::1          42147031365                       # Total energy per rank (pJ)
system.mem_ctrls0.averagePower::0          744.455230                       # Core power per rank (mW)
system.mem_ctrls0.averagePower::1          743.132818                       # Core power per rank (mW)
system.mem_ctrls1.bytes_read::ruby.dir_cntrl1     12349696                       # Number of bytes read from this memory
system.mem_ctrls1.bytes_read::total          12349696                       # Number of bytes read from this memory
system.mem_ctrls1.bytes_written::ruby.dir_cntrl1      7811456                       # Number of bytes written to this memory
system.mem_ctrls1.bytes_written::total        7811456                       # Number of bytes written to this memory
system.mem_ctrls1.num_reads::ruby.dir_cntrl1       192964                       # Number of read requests responded to by this memory
system.mem_ctrls1.num_reads::total             192964                       # Number of read requests responded to by this memory
system.mem_ctrls1.num_writes::ruby.dir_cntrl1       122054                       # Number of write requests responded to by this memory
system.mem_ctrls1.num_writes::total            122054                       # Number of write requests responded to by this memory
system.mem_ctrls1.bw_read::ruby.dir_cntrl1    217721688                       # Total read bandwidth from this memory (bytes/s)
system.mem_ctrls1.bw_read::total            217721688                       # Total read bandwidth from this memory (bytes/s)
system.mem_ctrls1.bw_write::ruby.dir_cntrl1    137713785                       # Write bandwidth from this memory (bytes/s)
system.mem_ctrls1.bw_write::total           137713785                       # Write bandwidth from this memory (bytes/s)
system.mem_ctrls1.bw_total::ruby.dir_cntrl1    355435473                       # Total bandwidth to/from this memory (bytes/s)
system.mem_ctrls1.bw_total::total           355435473                       # Total bandwidth to/from this memory (bytes/s)
system.mem_ctrls1.readReqs                     192964                       # Number of read requests accepted
system.mem_ctrls1.writeReqs                    122054                       # Number of write requests accepted
system.mem_ctrls1.readBursts                   192964                       # Number of DRAM read bursts, including those serviced by the write queue
system.mem_ctrls1.writeBursts                  122054                       # Number of DRAM write bursts, including those merged in the write queue
system.mem_ctrls1.bytesReadDRAM              12348224                       # Total number of bytes read from DRAM
system.mem_ctrls1.bytesReadWrQ                   1472                       # Total number of bytes read from write queue
system.mem_ctrls1.bytesWritten                7811456                       # Total number of bytes written to DRAM
system.mem_ctrls1.bytesReadSys               12349696                       # Total read bytes from the system interface side
system.mem_ctrls1.bytesWrittenSys             7811456                       # Total written bytes from the system interface side
system.mem_ctrls1.servicedByWrQ                    23                       # Number of DRAM read bursts serviced by the write queue
system.mem_ctrls1.mergedWrBursts                    0                       # Number of DRAM write bursts merged with an existing one
system.mem_ctrls1.neitherReadNorWriteReqs            0                       # Number of requests that are neither read nor write
system.mem_ctrls1.perBankRdBursts::0            11857                       # Per bank write bursts
system.mem_ctrls1.perBankRdBursts::1            11991                       # Per bank write bursts
system.mem_ctrls1.perBankRdBursts::2            11756                       # Per bank write bursts
system.mem_ctrls1.perBankRdBursts::3            12183                       # Per bank write bursts
system.mem_ctrls1.perBankRdBursts::4            11933                       # Per bank write bursts
system.mem_ctrls1.perBankRdBursts::5            12055                       # Per bank write bursts
system.mem_ctrls1.perBankRdBursts::6            12379                       # Per bank write bursts
system.mem_ctrls1.perBankRdBursts::7            12436                       # Per bank write bursts
system.mem_ctrls1.perBankRdBursts::8            12101                       # Per bank write bursts
system.mem_ctrls1.perBankRdBursts::9            12546                       # Per bank write bursts
system.mem_ctrls1.perBankRdBursts::10           12097                       # Per bank write bursts
system.mem_ctrls1.perBankRdBursts::11           12459                       # Per bank write bursts
system.mem_ctrls1.perBankRdBursts::12           11926                       # Per bank write bursts
system.mem_ctrls1.perBankRdBursts::13           11708                       # Per bank write bursts
system.mem_ctrls1.perBankRdBursts::14           11897                       # Per bank write bursts
system.mem_ctrls1.perBankRdBursts::15           11617                       # Per bank write bursts
system.mem_ctrls1.perBankWrBursts::0             7564                       # Per bank write bursts
system.mem_ctrls1.perBankWrBursts::1             7448                       # Per bank write bursts
system.mem_ctrls1.perBankWrBursts::2             7599                       # Per bank write bursts
system.mem_ctrls1.perBankWrBursts::3             7627                       # Per bank write bursts
system.mem_ctrls1.perBankWrBursts::4             7599                       # Per bank write bursts
system.mem_ctrls1.perBankWrBursts::5             7716                       # Per bank write bursts
system.mem_ctrls1.perBankWrBursts::6             7723                       # Per bank write bursts
system.mem_ctrls1.perBankWrBursts::7             7820                       # Per bank write bursts
system.mem_ctrls1.perBankWrBursts::8             7723                       # Per bank write bursts
system.mem_ctrls1.perBankWrBursts::9             7832                       # Per bank write bursts
system.mem_ctrls1.perBankWrBursts::10            7641                       # Per bank write bursts
system.mem_ctrls1.perBankWrBursts::11            7664                       # Per bank write bursts
system.mem_ctrls1.perBankWrBursts::12            7516                       # Per bank write bursts
system.mem_ctrls1.perBankWrBursts::13            7530                       # Per bank write bursts
system.mem_ctrls1.perBankWrBursts::14            7647                       # Per bank write bursts
system.mem_ctrls1.perBankWrBursts::15            7405                       # Per bank write bursts
system.mem_ctrls1.numRdRetry                   102466                       # Number of times read queue was full causing retry
system.mem_ctrls1.numWrRetry                     7203                       # Number of times write queue was full causing retry
system.mem_ctrls1.totGap                  56721628500                       # Total gap between requests
system.mem_ctrls1.readPktSize::0                    0                       # Read request sizes (log2)
system.mem_ctrls1.readPktSize::1                    0                       # Read request sizes (log2)
system.mem_ctrls1.readPktSize::2                    0                       # Read request sizes (log2)
system.mem_ctrls1.readPktSize::3                    0                       # Read request sizes (log2)
system.mem_ctrls1.readPktSize::4                    0                       # Read request sizes (log2)
system.mem_ctrls1.readPktSize::5                    0                       # Read request sizes (log2)
system.mem_ctrls1.readPktSize::6               192964                       # Read request sizes (log2)
system.mem_ctrls1.writePktSize::0                   0                       # Write request sizes (log2)
system.mem_ctrls1.writePktSize::1                   0                       # Write request sizes (log2)
system.mem_ctrls1.writePktSize::2                   0                       # Write request sizes (log2)
system.mem_ctrls1.writePktSize::3                   0                       # Write request sizes (log2)
system.mem_ctrls1.writePktSize::4                   0                       # Write request sizes (log2)
system.mem_ctrls1.writePktSize::5                   0                       # Write request sizes (log2)
system.mem_ctrls1.writePktSize::6              122054                       # Write request sizes (log2)
system.mem_ctrls1.rdQLenPdf::0                  67160                       # What read queue length does an incoming req see
system.mem_ctrls1.rdQLenPdf::1                   1045                       # What read queue length does an incoming req see
system.mem_ctrls1.rdQLenPdf::2                    712                       # What read queue length does an incoming req see
system.mem_ctrls1.rdQLenPdf::3                    724                       # What read queue length does an incoming req see
system.mem_ctrls1.rdQLenPdf::4                    735                       # What read queue length does an incoming req see
system.mem_ctrls1.rdQLenPdf::5                    701                       # What read queue length does an incoming req see
system.mem_ctrls1.rdQLenPdf::6                    656                       # What read queue length does an incoming req see
system.mem_ctrls1.rdQLenPdf::7                    707                       # What read queue length does an incoming req see
system.mem_ctrls1.rdQLenPdf::8                    720                       # What read queue length does an incoming req see
system.mem_ctrls1.rdQLenPdf::9                    773                       # What read queue length does an incoming req see
system.mem_ctrls1.rdQLenPdf::10                   751                       # What read queue length does an incoming req see
system.mem_ctrls1.rdQLenPdf::11                   763                       # What read queue length does an incoming req see
system.mem_ctrls1.rdQLenPdf::12                   756                       # What read queue length does an incoming req see
system.mem_ctrls1.rdQLenPdf::13                   672                       # What read queue length does an incoming req see
system.mem_ctrls1.rdQLenPdf::14                   677                       # What read queue length does an incoming req see
system.mem_ctrls1.rdQLenPdf::15                   659                       # What read queue length does an incoming req see
system.mem_ctrls1.rdQLenPdf::16                   702                       # What read queue length does an incoming req see
system.mem_ctrls1.rdQLenPdf::17                   645                       # What read queue length does an incoming req see
system.mem_ctrls1.rdQLenPdf::18                   614                       # What read queue length does an incoming req see
system.mem_ctrls1.rdQLenPdf::19                   635                       # What read queue length does an incoming req see
system.mem_ctrls1.rdQLenPdf::20                   621                       # What read queue length does an incoming req see
system.mem_ctrls1.rdQLenPdf::21                   612                       # What read queue length does an incoming req see
system.mem_ctrls1.rdQLenPdf::22                   554                       # What read queue length does an incoming req see
system.mem_ctrls1.rdQLenPdf::23                   529                       # What read queue length does an incoming req see
system.mem_ctrls1.rdQLenPdf::24                   553                       # What read queue length does an incoming req see
system.mem_ctrls1.rdQLenPdf::25                   608                       # What read queue length does an incoming req see
system.mem_ctrls1.rdQLenPdf::26                   605                       # What read queue length does an incoming req see
system.mem_ctrls1.rdQLenPdf::27                   665                       # What read queue length does an incoming req see
system.mem_ctrls1.rdQLenPdf::28                   721                       # What read queue length does an incoming req see
system.mem_ctrls1.rdQLenPdf::29                   837                       # What read queue length does an incoming req see
system.mem_ctrls1.rdQLenPdf::30                  1145                       # What read queue length does an incoming req see
system.mem_ctrls1.rdQLenPdf::31                104684                       # What read queue length does an incoming req see
system.mem_ctrls1.wrQLenPdf::0                  16206                       # What write queue length does an incoming req see
system.mem_ctrls1.wrQLenPdf::1                  17135                       # What write queue length does an incoming req see
system.mem_ctrls1.wrQLenPdf::2                  17749                       # What write queue length does an incoming req see
system.mem_ctrls1.wrQLenPdf::3                  18370                       # What write queue length does an incoming req see
system.mem_ctrls1.wrQLenPdf::4                  19221                       # What write queue length does an incoming req see
system.mem_ctrls1.wrQLenPdf::5                   8276                       # What write queue length does an incoming req see
system.mem_ctrls1.wrQLenPdf::6                   9949                       # What write queue length does an incoming req see
system.mem_ctrls1.wrQLenPdf::7                  15148                       # What write queue length does an incoming req see
system.mem_ctrls1.bytesPerActivate::samples        91060                       # Bytes accessed per row activation
system.mem_ctrls1.bytesPerActivate::mean   221.359455                       # Bytes accessed per row activation
system.mem_ctrls1.bytesPerActivate::gmean   166.267685                       # Bytes accessed per row activation
system.mem_ctrls1.bytesPerActivate::stdev   180.332443                       # Bytes accessed per row activation
system.mem_ctrls1.bytesPerActivate::0-127        26847     29.48%     29.48% # Bytes accessed per row activation
system.mem_ctrls1.bytesPerActivate::128-255        27642     30.36%     59.84% # Bytes accessed per row activation
system.mem_ctrls1.bytesPerActivate::256-383        23915     26.26%     86.10% # Bytes accessed per row activation
system.mem_ctrls1.bytesPerActivate::384-511         5653      6.21%     92.31% # Bytes accessed per row activation
system.mem_ctrls1.bytesPerActivate::512-639         3406      3.74%     96.05% # Bytes accessed per row activation
system.mem_ctrls1.bytesPerActivate::640-767         1228      1.35%     97.40% # Bytes accessed per row activation
system.mem_ctrls1.bytesPerActivate::768-895          752      0.83%     98.22% # Bytes accessed per row activation
system.mem_ctrls1.bytesPerActivate::896-1023          500      0.55%     98.77% # Bytes accessed per row activation
system.mem_ctrls1.bytesPerActivate::1024-1151         1117      1.23%    100.00% # Bytes accessed per row activation
system.mem_ctrls1.bytesPerActivate::total        91060                       # Bytes accessed per row activation
system.mem_ctrls1.rdPerTurnAround::samples        16792                       # Reads before turning the bus around for writes
system.mem_ctrls1.rdPerTurnAround::mean     11.490055                       # Reads before turning the bus around for writes
system.mem_ctrls1.rdPerTurnAround::stdev    26.422384                       # Reads before turning the bus around for writes
system.mem_ctrls1.rdPerTurnAround::0-127        16786     99.96%     99.96% # Reads before turning the bus around for writes
system.mem_ctrls1.rdPerTurnAround::128-255            4      0.02%     99.99% # Reads before turning the bus around for writes
system.mem_ctrls1.rdPerTurnAround::1152-1279            1      0.01%     99.99% # Reads before turning the bus around for writes
system.mem_ctrls1.rdPerTurnAround::2816-2943            1      0.01%    100.00% # Reads before turning the bus around for writes
system.mem_ctrls1.rdPerTurnAround::total        16792                       # Reads before turning the bus around for writes
system.mem_ctrls1.wrPerTurnAround::samples        16792                       # Writes before turning the bus around for reads
system.mem_ctrls1.wrPerTurnAround::mean      7.268580                       # Writes before turning the bus around for reads
system.mem_ctrls1.wrPerTurnAround::gmean     6.570774                       # Writes before turning the bus around for reads
system.mem_ctrls1.wrPerTurnAround::stdev     3.672469                       # Writes before turning the bus around for reads
system.mem_ctrls1.wrPerTurnAround::4-7          11715     69.77%     69.77% # Writes before turning the bus around for reads
system.mem_ctrls1.wrPerTurnAround::8-11          2118     12.61%     82.38% # Writes before turning the bus around for reads
system.mem_ctrls1.wrPerTurnAround::12-15         1946     11.59%     93.97% # Writes before turning the bus around for reads
system.mem_ctrls1.wrPerTurnAround::16-19         1013      6.03%    100.00% # Writes before turning the bus around for reads
system.mem_ctrls1.wrPerTurnAround::total        16792                       # Writes before turning the bus around for reads
system.mem_ctrls1.totQLat                 37176143723                       # Total ticks spent queuing
system.mem_ctrls1.totMemAccLat            40793787473                       # Total ticks spent from burst creation until serviced by the DRAM
system.mem_ctrls1.totBusLat                 964705000                       # Total ticks spent in databus transfers
system.mem_ctrls1.avgQLat                   192681.41                       # Average queueing delay per DRAM burst
system.mem_ctrls1.avgBusLat                   5000.00                       # Average bus latency per DRAM burst
system.mem_ctrls1.avgMemAccLat              211431.41                       # Average memory access latency per DRAM burst
system.mem_ctrls1.avgRdBW                      217.70                       # Average DRAM read bandwidth in MiByte/s
system.mem_ctrls1.avgWrBW                      137.71                       # Average achieved write bandwidth in MiByte/s
system.mem_ctrls1.avgRdBWSys                   217.72                       # Average system read bandwidth in MiByte/s
system.mem_ctrls1.avgWrBWSys                   137.71                       # Average system write bandwidth in MiByte/s
system.mem_ctrls1.peakBW                     12800.00                       # Theoretical peak bandwidth in MiByte/s
system.mem_ctrls1.busUtil                        2.78                       # Data bus utilization in percentage
system.mem_ctrls1.busUtilRead                    1.70                       # Data bus utilization in percentage for reads
system.mem_ctrls1.busUtilWrite                   1.08                       # Data bus utilization in percentage for writes
system.mem_ctrls1.avgRdQLen                      1.68                       # Average read queue length when enqueuing
system.mem_ctrls1.avgWrQLen                      2.98                       # Average write queue length when enqueuing
system.mem_ctrls1.readRowHits                  145783                       # Number of row buffer hits during reads
system.mem_ctrls1.writeRowHits                  78138                       # Number of row buffer hits during writes
system.mem_ctrls1.readRowHitRate                75.56                       # Row buffer hit rate for reads
system.mem_ctrls1.writeRowHitRate               64.02                       # Row buffer hit rate for writes
system.mem_ctrls1.avgGap                    180058.37                       # Average gap between requests
system.mem_ctrls1.pageHitRate                   71.09                       # Row buffer hit rate, read and write combined
system.mem_ctrls1.memoryStateTime::IDLE   11893191250                       # Time in different power states
system.mem_ctrls1.memoryStateTime::REF     1893840000                       # Time in different power states
system.mem_ctrls1.memoryStateTime::PRE_PDN            0                       # Time in different power states
system.mem_ctrls1.memoryStateTime::ACT    42928317750                       # Time in different power states
system.mem_ctrls1.memoryStateTime::ACT_PDN            0                       # Time in different power states
system.mem_ctrls1.actEnergy::0              347434920                       # Energy for activate commands per rank (pJ)
system.mem_ctrls1.actEnergy::1              340457040                       # Energy for activate commands per rank (pJ)
system.mem_ctrls1.preEnergy::0              189572625                       # Energy for precharge commands per rank (pJ)
system.mem_ctrls1.preEnergy::1              185765250                       # Energy for precharge commands per rank (pJ)
system.mem_ctrls1.readEnergy::0             752583000                       # Energy for read commands per rank (pJ)
system.mem_ctrls1.readEnergy::1             750157200                       # Energy for read commands per rank (pJ)
system.mem_ctrls1.writeEnergy::0            395442000                       # Energy for write commands per rank (pJ)
system.mem_ctrls1.writeEnergy::1            394761600                       # Energy for write commands per rank (pJ)
system.mem_ctrls1.refreshEnergy::0         3704351040                       # Energy for refresh commands per rank (pJ)
system.mem_ctrls1.refreshEnergy::1         3704351040                       # Energy for refresh commands per rank (pJ)
system.mem_ctrls1.actBackEnergy::0        22077489375                       # Energy for active background per rank (pJ)
system.mem_ctrls1.actBackEnergy::1        21519603585                       # Energy for active background per rank (pJ)
system.mem_ctrls1.preBackEnergy::0        14662982250                       # Energy for precharge background per rank (pJ)
system.mem_ctrls1.preBackEnergy::1        15152355750                       # Energy for precharge background per rank (pJ)
system.mem_ctrls1.totalEnergy::0          42129855210                       # Total energy per rank (pJ)
system.mem_ctrls1.totalEnergy::1          42047451465                       # Total energy per rank (pJ)
system.mem_ctrls1.averagePower::0          742.830051                       # Core power per rank (mW)
system.mem_ctrls1.averagePower::1          741.377115                       # Core power per rank (mW)
system.mem_ctrls2.bytes_read::ruby.dir_cntrl2     12349504                       # Number of bytes read from this memory
system.mem_ctrls2.bytes_read::total          12349504                       # Number of bytes read from this memory
system.mem_ctrls2.bytes_written::ruby.dir_cntrl2      7812416                       # Number of bytes written to this memory
system.mem_ctrls2.bytes_written::total        7812416                       # Number of bytes written to this memory
system.mem_ctrls2.num_reads::ruby.dir_cntrl2       192961                       # Number of read requests responded to by this memory
system.mem_ctrls2.num_reads::total             192961                       # Number of read requests responded to by this memory
system.mem_ctrls2.num_writes::ruby.dir_cntrl2       122069                       # Number of write requests responded to by this memory
system.mem_ctrls2.num_writes::total            122069                       # Number of write requests responded to by this memory
system.mem_ctrls2.bw_read::ruby.dir_cntrl2    217718303                       # Total read bandwidth from this memory (bytes/s)
system.mem_ctrls2.bw_read::total            217718303                       # Total read bandwidth from this memory (bytes/s)
system.mem_ctrls2.bw_write::ruby.dir_cntrl2    137730710                       # Write bandwidth from this memory (bytes/s)
system.mem_ctrls2.bw_write::total           137730710                       # Write bandwidth from this memory (bytes/s)
system.mem_ctrls2.bw_total::ruby.dir_cntrl2    355449012                       # Total bandwidth to/from this memory (bytes/s)
system.mem_ctrls2.bw_total::total           355449012                       # Total bandwidth to/from this memory (bytes/s)
system.mem_ctrls2.readReqs                     192961                       # Number of read requests accepted
system.mem_ctrls2.writeReqs                    122069                       # Number of write requests accepted
system.mem_ctrls2.readBursts                   192961                       # Number of DRAM read bursts, including those serviced by the write queue
system.mem_ctrls2.writeBursts                  122069                       # Number of DRAM write bursts, including those merged in the write queue
system.mem_ctrls2.bytesReadDRAM              12347840                       # Total number of bytes read from DRAM
system.mem_ctrls2.bytesReadWrQ                   1664                       # Total number of bytes read from write queue
system.mem_ctrls2.bytesWritten                7812160                       # Total number of bytes written to DRAM
system.mem_ctrls2.bytesReadSys               12349504                       # Total read bytes from the system interface side
system.mem_ctrls2.bytesWrittenSys             7812416                       # Total written bytes from the system interface side
system.mem_ctrls2.servicedByWrQ                    26                       # Number of DRAM read bursts serviced by the write queue
system.mem_ctrls2.mergedWrBursts                    0                       # Number of DRAM write bursts merged with an existing one
system.mem_ctrls2.neitherReadNorWriteReqs            0                       # Number of requests that are neither read nor write
system.mem_ctrls2.perBankRdBursts::0            11853                       # Per bank write bursts
system.mem_ctrls2.perBankRdBursts::1            12020                       # Per bank write bursts
system.mem_ctrls2.perBankRdBursts::2            11777                       # Per bank write bursts
system.mem_ctrls2.perBankRdBursts::3            12225                       # Per bank write bursts
system.mem_ctrls2.perBankRdBursts::4            11932                       # Per bank write bursts
system.mem_ctrls2.perBankRdBursts::5            12032                       # Per bank write bursts
system.mem_ctrls2.perBankRdBursts::6            12342                       # Per bank write bursts
system.mem_ctrls2.perBankRdBursts::7            12429                       # Per bank write bursts
system.mem_ctrls2.perBankRdBursts::8            12096                       # Per bank write bursts
system.mem_ctrls2.perBankRdBursts::9            12532                       # Per bank write bursts
system.mem_ctrls2.perBankRdBursts::10           12108                       # Per bank write bursts
system.mem_ctrls2.perBankRdBursts::11           12496                       # Per bank write bursts
system.mem_ctrls2.perBankRdBursts::12           11931                       # Per bank write bursts
system.mem_ctrls2.perBankRdBursts::13           11677                       # Per bank write bursts
system.mem_ctrls2.perBankRdBursts::14           11873                       # Per bank write bursts
system.mem_ctrls2.perBankRdBursts::15           11612                       # Per bank write bursts
system.mem_ctrls2.perBankWrBursts::0             7557                       # Per bank write bursts
system.mem_ctrls2.perBankWrBursts::1             7446                       # Per bank write bursts
system.mem_ctrls2.perBankWrBursts::2             7599                       # Per bank write bursts
system.mem_ctrls2.perBankWrBursts::3             7638                       # Per bank write bursts
system.mem_ctrls2.perBankWrBursts::4             7594                       # Per bank write bursts
system.mem_ctrls2.perBankWrBursts::5             7703                       # Per bank write bursts
system.mem_ctrls2.perBankWrBursts::6             7715                       # Per bank write bursts
system.mem_ctrls2.perBankWrBursts::7             7829                       # Per bank write bursts
system.mem_ctrls2.perBankWrBursts::8             7725                       # Per bank write bursts
system.mem_ctrls2.perBankWrBursts::9             7831                       # Per bank write bursts
system.mem_ctrls2.perBankWrBursts::10            7642                       # Per bank write bursts
system.mem_ctrls2.perBankWrBursts::11            7673                       # Per bank write bursts
system.mem_ctrls2.perBankWrBursts::12            7524                       # Per bank write bursts
system.mem_ctrls2.perBankWrBursts::13            7525                       # Per bank write bursts
system.mem_ctrls2.perBankWrBursts::14            7653                       # Per bank write bursts
system.mem_ctrls2.perBankWrBursts::15            7411                       # Per bank write bursts
system.mem_ctrls2.numRdRetry                   102289                       # Number of times read queue was full causing retry
system.mem_ctrls2.numWrRetry                     7377                       # Number of times write queue was full causing retry
system.mem_ctrls2.totGap                  56722257000                       # Total gap between requests
system.mem_ctrls2.readPktSize::0                    0                       # Read request sizes (log2)
system.mem_ctrls2.readPktSize::1                    0                       # Read request sizes (log2)
system.mem_ctrls2.readPktSize::2                    0                       # Read request sizes (log2)
system.mem_ctrls2.readPktSize::3                    0                       # Read request sizes (log2)
system.mem_ctrls2.readPktSize::4                    0                       # Read request sizes (log2)
system.mem_ctrls2.readPktSize::5                    0                       # Read request sizes (log2)
system.mem_ctrls2.readPktSize::6               192961                       # Read request sizes (log2)
system.mem_ctrls2.writePktSize::0                   0                       # Write request sizes (log2)
system.mem_ctrls2.writePktSize::1                   0                       # Write request sizes (log2)
system.mem_ctrls2.writePktSize::2                   0                       # Write request sizes (log2)
system.mem_ctrls2.writePktSize::3                   0                       # Write request sizes (log2)
system.mem_ctrls2.writePktSize::4                   0                       # Write request sizes (log2)
system.mem_ctrls2.writePktSize::5                   0                       # Write request sizes (log2)
system.mem_ctrls2.writePktSize::6              122069                       # Write request sizes (log2)
system.mem_ctrls2.rdQLenPdf::0                  67250                       # What read queue length does an incoming req see
system.mem_ctrls2.rdQLenPdf::1                   1026                       # What read queue length does an incoming req see
system.mem_ctrls2.rdQLenPdf::2                    709                       # What read queue length does an incoming req see
system.mem_ctrls2.rdQLenPdf::3                    703                       # What read queue length does an incoming req see
system.mem_ctrls2.rdQLenPdf::4                    727                       # What read queue length does an incoming req see
system.mem_ctrls2.rdQLenPdf::5                    775                       # What read queue length does an incoming req see
system.mem_ctrls2.rdQLenPdf::6                    726                       # What read queue length does an incoming req see
system.mem_ctrls2.rdQLenPdf::7                    707                       # What read queue length does an incoming req see
system.mem_ctrls2.rdQLenPdf::8                    696                       # What read queue length does an incoming req see
system.mem_ctrls2.rdQLenPdf::9                    705                       # What read queue length does an incoming req see
system.mem_ctrls2.rdQLenPdf::10                   695                       # What read queue length does an incoming req see
system.mem_ctrls2.rdQLenPdf::11                   723                       # What read queue length does an incoming req see
system.mem_ctrls2.rdQLenPdf::12                   673                       # What read queue length does an incoming req see
system.mem_ctrls2.rdQLenPdf::13                   624                       # What read queue length does an incoming req see
system.mem_ctrls2.rdQLenPdf::14                   661                       # What read queue length does an incoming req see
system.mem_ctrls2.rdQLenPdf::15                   655                       # What read queue length does an incoming req see
system.mem_ctrls2.rdQLenPdf::16                   705                       # What read queue length does an incoming req see
system.mem_ctrls2.rdQLenPdf::17                   691                       # What read queue length does an incoming req see
system.mem_ctrls2.rdQLenPdf::18                   652                       # What read queue length does an incoming req see
system.mem_ctrls2.rdQLenPdf::19                   647                       # What read queue length does an incoming req see
system.mem_ctrls2.rdQLenPdf::20                   584                       # What read queue length does an incoming req see
system.mem_ctrls2.rdQLenPdf::21                   627                       # What read queue length does an incoming req see
system.mem_ctrls2.rdQLenPdf::22                   649                       # What read queue length does an incoming req see
system.mem_ctrls2.rdQLenPdf::23                   612                       # What read queue length does an incoming req see
system.mem_ctrls2.rdQLenPdf::24                   621                       # What read queue length does an incoming req see
system.mem_ctrls2.rdQLenPdf::25                   617                       # What read queue length does an incoming req see
system.mem_ctrls2.rdQLenPdf::26                   638                       # What read queue length does an incoming req see
system.mem_ctrls2.rdQLenPdf::27                   670                       # What read queue length does an incoming req see
system.mem_ctrls2.rdQLenPdf::28                   737                       # What read queue length does an incoming req see
system.mem_ctrls2.rdQLenPdf::29                   841                       # What read queue length does an incoming req see
system.mem_ctrls2.rdQLenPdf::30                  1126                       # What read queue length does an incoming req see
system.mem_ctrls2.rdQLenPdf::31                104463                       # What read queue length does an incoming req see
system.mem_ctrls2.wrQLenPdf::0                  16166                       # What write queue length does an incoming req see
system.mem_ctrls2.wrQLenPdf::1                  17135                       # What write queue length does an incoming req see
system.mem_ctrls2.wrQLenPdf::2                  17781                       # What write queue length does an incoming req see
system.mem_ctrls2.wrQLenPdf::3                  18349                       # What write queue length does an incoming req see
system.mem_ctrls2.wrQLenPdf::4                  19058                       # What write queue length does an incoming req see
system.mem_ctrls2.wrQLenPdf::5                   8351                       # What write queue length does an incoming req see
system.mem_ctrls2.wrQLenPdf::6                   9904                       # What write queue length does an incoming req see
system.mem_ctrls2.wrQLenPdf::7                  15325                       # What write queue length does an incoming req see
system.mem_ctrls2.bytesPerActivate::samples        91072                       # Bytes accessed per row activation
system.mem_ctrls2.bytesPerActivate::mean   221.319044                       # Bytes accessed per row activation
system.mem_ctrls2.bytesPerActivate::gmean   166.571298                       # Bytes accessed per row activation
system.mem_ctrls2.bytesPerActivate::stdev   179.062353                       # Bytes accessed per row activation
system.mem_ctrls2.bytesPerActivate::0-127        26699     29.32%     29.32% # Bytes accessed per row activation
system.mem_ctrls2.bytesPerActivate::128-255        27670     30.38%     59.70% # Bytes accessed per row activation
system.mem_ctrls2.bytesPerActivate::256-383        24062     26.42%     86.12% # Bytes accessed per row activation
system.mem_ctrls2.bytesPerActivate::384-511         5593      6.14%     92.26% # Bytes accessed per row activation
system.mem_ctrls2.bytesPerActivate::512-639         3586      3.94%     96.20% # Bytes accessed per row activation
system.mem_ctrls2.bytesPerActivate::640-767         1175      1.29%     97.49% # Bytes accessed per row activation
system.mem_ctrls2.bytesPerActivate::768-895          744      0.82%     98.31% # Bytes accessed per row activation
system.mem_ctrls2.bytesPerActivate::896-1023          441      0.48%     98.79% # Bytes accessed per row activation
system.mem_ctrls2.bytesPerActivate::1024-1151         1102      1.21%    100.00% # Bytes accessed per row activation
system.mem_ctrls2.bytesPerActivate::total        91072                       # Bytes accessed per row activation
system.mem_ctrls2.rdPerTurnAround::samples        16800                       # Reads before turning the bus around for writes
system.mem_ctrls2.rdPerTurnAround::mean     11.483214                       # Reads before turning the bus around for writes
system.mem_ctrls2.rdPerTurnAround::stdev    26.490712                       # Reads before turning the bus around for writes
system.mem_ctrls2.rdPerTurnAround::0-127        16795     99.97%     99.97% # Reads before turning the bus around for writes
system.mem_ctrls2.rdPerTurnAround::128-255            3      0.02%     99.99% # Reads before turning the bus around for writes
system.mem_ctrls2.rdPerTurnAround::1152-1279            1      0.01%     99.99% # Reads before turning the bus around for writes
system.mem_ctrls2.rdPerTurnAround::2816-2943            1      0.01%    100.00% # Reads before turning the bus around for writes
system.mem_ctrls2.rdPerTurnAround::total        16800                       # Reads before turning the bus around for writes
system.mem_ctrls2.wrPerTurnAround::samples        16800                       # Writes before turning the bus around for reads
system.mem_ctrls2.wrPerTurnAround::mean      7.265774                       # Writes before turning the bus around for reads
system.mem_ctrls2.wrPerTurnAround::gmean     6.566611                       # Writes before turning the bus around for reads
system.mem_ctrls2.wrPerTurnAround::stdev     3.680934                       # Writes before turning the bus around for reads
system.mem_ctrls2.wrPerTurnAround::4-7          11734     69.85%     69.85% # Writes before turning the bus around for reads
system.mem_ctrls2.wrPerTurnAround::8-11          2110     12.56%     82.40% # Writes before turning the bus around for reads
system.mem_ctrls2.wrPerTurnAround::12-15         1880     11.19%     93.60% # Writes before turning the bus around for reads
system.mem_ctrls2.wrPerTurnAround::16-19         1076      6.40%    100.00% # Writes before turning the bus around for reads
system.mem_ctrls2.wrPerTurnAround::total        16800                       # Writes before turning the bus around for reads
system.mem_ctrls2.totQLat                 37128808150                       # Total ticks spent queuing
system.mem_ctrls2.totMemAccLat            40746339400                       # Total ticks spent from burst creation until serviced by the DRAM
system.mem_ctrls2.totBusLat                 964675000                       # Total ticks spent in databus transfers
system.mem_ctrls2.avgQLat                   192442.06                       # Average queueing delay per DRAM burst
system.mem_ctrls2.avgBusLat                   5000.00                       # Average bus latency per DRAM burst
system.mem_ctrls2.avgMemAccLat              211192.06                       # Average memory access latency per DRAM burst
system.mem_ctrls2.avgRdBW                      217.69                       # Average DRAM read bandwidth in MiByte/s
system.mem_ctrls2.avgWrBW                      137.73                       # Average achieved write bandwidth in MiByte/s
system.mem_ctrls2.avgRdBWSys                   217.72                       # Average system read bandwidth in MiByte/s
system.mem_ctrls2.avgWrBWSys                   137.73                       # Average system write bandwidth in MiByte/s
system.mem_ctrls2.peakBW                     12800.00                       # Theoretical peak bandwidth in MiByte/s
system.mem_ctrls2.busUtil                        2.78                       # Data bus utilization in percentage
system.mem_ctrls2.busUtilRead                    1.70                       # Data bus utilization in percentage for reads
system.mem_ctrls2.busUtilWrite                   1.08                       # Data bus utilization in percentage for writes
system.mem_ctrls2.avgRdQLen                      1.67                       # Average read queue length when enqueuing
system.mem_ctrls2.avgWrQLen                      2.94                       # Average write queue length when enqueuing
system.mem_ctrls2.readRowHits                  145682                       # Number of row buffer hits during reads
system.mem_ctrls2.writeRowHits                  78232                       # Number of row buffer hits during writes
system.mem_ctrls2.readRowHitRate                75.51                       # Row buffer hit rate for reads
system.mem_ctrls2.writeRowHitRate               64.09                       # Row buffer hit rate for writes
system.mem_ctrls2.avgGap                    180053.51                       # Average gap between requests
system.mem_ctrls2.pageHitRate                   71.08                       # Row buffer hit rate, read and write combined
system.mem_ctrls2.memoryStateTime::IDLE   11875042500                       # Time in different power states
system.mem_ctrls2.memoryStateTime::REF     1893840000                       # Time in different power states
system.mem_ctrls2.memoryStateTime::PRE_PDN            0                       # Time in different power states
system.mem_ctrls2.memoryStateTime::ACT    42946494000                       # Time in different power states
system.mem_ctrls2.memoryStateTime::ACT_PDN            0                       # Time in different power states
system.mem_ctrls2.actEnergy::0              348357240                       # Energy for activate commands per rank (pJ)
system.mem_ctrls2.actEnergy::1              339587640                       # Energy for activate commands per rank (pJ)
system.mem_ctrls2.preEnergy::0              190075875                       # Energy for precharge commands per rank (pJ)
system.mem_ctrls2.preEnergy::1              185290875                       # Energy for precharge commands per rank (pJ)
system.mem_ctrls2.readEnergy::0             752770200                       # Energy for read commands per rank (pJ)
system.mem_ctrls2.readEnergy::1             750001200                       # Energy for read commands per rank (pJ)
system.mem_ctrls2.writeEnergy::0            395422560                       # Energy for write commands per rank (pJ)
system.mem_ctrls2.writeEnergy::1            394962480                       # Energy for write commands per rank (pJ)
system.mem_ctrls2.refreshEnergy::0         3704351040                       # Energy for refresh commands per rank (pJ)
system.mem_ctrls2.refreshEnergy::1         3704351040                       # Energy for refresh commands per rank (pJ)
system.mem_ctrls2.actBackEnergy::0        21829696695                       # Energy for active background per rank (pJ)
system.mem_ctrls2.actBackEnergy::1        21327167880                       # Energy for active background per rank (pJ)
system.mem_ctrls2.preBackEnergy::0        14880360750                       # Energy for precharge background per rank (pJ)
system.mem_ctrls2.preBackEnergy::1        15321175500                       # Energy for precharge background per rank (pJ)
system.mem_ctrls2.totalEnergy::0          42101034360                       # Total energy per rank (pJ)
system.mem_ctrls2.totalEnergy::1          42022536615                       # Total energy per rank (pJ)
system.mem_ctrls2.averagePower::0          742.321525                       # Core power per rank (mW)
system.mem_ctrls2.averagePower::1          740.937460                       # Core power per rank (mW)
system.mem_ctrls3.bytes_read::ruby.dir_cntrl3     12328832                       # Number of bytes read from this memory
system.mem_ctrls3.bytes_read::total          12328832                       # Number of bytes read from this memory
system.mem_ctrls3.bytes_written::ruby.dir_cntrl3      7809536                       # Number of bytes written to this memory
system.mem_ctrls3.bytes_written::total        7809536                       # Number of bytes written to this memory
system.mem_ctrls3.num_reads::ruby.dir_cntrl3       192638                       # Number of read requests responded to by this memory
system.mem_ctrls3.num_reads::total             192638                       # Number of read requests responded to by this memory
system.mem_ctrls3.num_writes::ruby.dir_cntrl3       122024                       # Number of write requests responded to by this memory
system.mem_ctrls3.num_writes::total            122024                       # Number of write requests responded to by this memory
system.mem_ctrls3.bw_read::ruby.dir_cntrl3    217353861                       # Total read bandwidth from this memory (bytes/s)
system.mem_ctrls3.bw_read::total            217353861                       # Total read bandwidth from this memory (bytes/s)
system.mem_ctrls3.bw_write::ruby.dir_cntrl3    137679936                       # Write bandwidth from this memory (bytes/s)
system.mem_ctrls3.bw_write::total           137679936                       # Write bandwidth from this memory (bytes/s)
system.mem_ctrls3.bw_total::ruby.dir_cntrl3    355033797                       # Total bandwidth to/from this memory (bytes/s)
system.mem_ctrls3.bw_total::total           355033797                       # Total bandwidth to/from this memory (bytes/s)
system.mem_ctrls3.readReqs                     192639                       # Number of read requests accepted
system.mem_ctrls3.writeReqs                    122024                       # Number of write requests accepted
system.mem_ctrls3.readBursts                   192639                       # Number of DRAM read bursts, including those serviced by the write queue
system.mem_ctrls3.writeBursts                  122024                       # Number of DRAM write bursts, including those merged in the write queue
system.mem_ctrls3.bytesReadDRAM              12327680                       # Total number of bytes read from DRAM
system.mem_ctrls3.bytesReadWrQ                   1216                       # Total number of bytes read from write queue
system.mem_ctrls3.bytesWritten                7809472                       # Total number of bytes written to DRAM
system.mem_ctrls3.bytesReadSys               12328896                       # Total read bytes from the system interface side
system.mem_ctrls3.bytesWrittenSys             7809536                       # Total written bytes from the system interface side
system.mem_ctrls3.servicedByWrQ                    19                       # Number of DRAM read bursts serviced by the write queue
system.mem_ctrls3.mergedWrBursts                    0                       # Number of DRAM write bursts merged with an existing one
system.mem_ctrls3.neitherReadNorWriteReqs            0                       # Number of requests that are neither read nor write
system.mem_ctrls3.perBankRdBursts::0            11839                       # Per bank write bursts
system.mem_ctrls3.perBankRdBursts::1            11977                       # Per bank write bursts
system.mem_ctrls3.perBankRdBursts::2            11717                       # Per bank write bursts
system.mem_ctrls3.perBankRdBursts::3            12178                       # Per bank write bursts
system.mem_ctrls3.perBankRdBursts::4            11882                       # Per bank write bursts
system.mem_ctrls3.perBankRdBursts::5            12016                       # Per bank write bursts
system.mem_ctrls3.perBankRdBursts::6            12328                       # Per bank write bursts
system.mem_ctrls3.perBankRdBursts::7            12417                       # Per bank write bursts
system.mem_ctrls3.perBankRdBursts::8            12093                       # Per bank write bursts
system.mem_ctrls3.perBankRdBursts::9            12525                       # Per bank write bursts
system.mem_ctrls3.perBankRdBursts::10           12128                       # Per bank write bursts
system.mem_ctrls3.perBankRdBursts::11           12430                       # Per bank write bursts
system.mem_ctrls3.perBankRdBursts::12           11917                       # Per bank write bursts
system.mem_ctrls3.perBankRdBursts::13           11671                       # Per bank write bursts
system.mem_ctrls3.perBankRdBursts::14           11895                       # Per bank write bursts
system.mem_ctrls3.perBankRdBursts::15           11607                       # Per bank write bursts
system.mem_ctrls3.perBankWrBursts::0             7563                       # Per bank write bursts
system.mem_ctrls3.perBankWrBursts::1             7434                       # Per bank write bursts
system.mem_ctrls3.perBankWrBursts::2             7595                       # Per bank write bursts
system.mem_ctrls3.perBankWrBursts::3             7625                       # Per bank write bursts
system.mem_ctrls3.perBankWrBursts::4             7591                       # Per bank write bursts
system.mem_ctrls3.perBankWrBursts::5             7703                       # Per bank write bursts
system.mem_ctrls3.perBankWrBursts::6             7716                       # Per bank write bursts
system.mem_ctrls3.perBankWrBursts::7             7823                       # Per bank write bursts
system.mem_ctrls3.perBankWrBursts::8             7721                       # Per bank write bursts
system.mem_ctrls3.perBankWrBursts::9             7832                       # Per bank write bursts
system.mem_ctrls3.perBankWrBursts::10            7643                       # Per bank write bursts
system.mem_ctrls3.perBankWrBursts::11            7682                       # Per bank write bursts
system.mem_ctrls3.perBankWrBursts::12            7521                       # Per bank write bursts
system.mem_ctrls3.perBankWrBursts::13            7529                       # Per bank write bursts
system.mem_ctrls3.perBankWrBursts::14            7649                       # Per bank write bursts
system.mem_ctrls3.perBankWrBursts::15            7396                       # Per bank write bursts
system.mem_ctrls3.numRdRetry                   100384                       # Number of times read queue was full causing retry
system.mem_ctrls3.numWrRetry                     7198                       # Number of times write queue was full causing retry
system.mem_ctrls3.totGap                  56721653500                       # Total gap between requests
system.mem_ctrls3.readPktSize::0                    0                       # Read request sizes (log2)
system.mem_ctrls3.readPktSize::1                    0                       # Read request sizes (log2)
system.mem_ctrls3.readPktSize::2                    0                       # Read request sizes (log2)
system.mem_ctrls3.readPktSize::3                    0                       # Read request sizes (log2)
system.mem_ctrls3.readPktSize::4                    0                       # Read request sizes (log2)
system.mem_ctrls3.readPktSize::5                    0                       # Read request sizes (log2)
system.mem_ctrls3.readPktSize::6               192639                       # Read request sizes (log2)
system.mem_ctrls3.writePktSize::0                   0                       # Write request sizes (log2)
system.mem_ctrls3.writePktSize::1                   0                       # Write request sizes (log2)
system.mem_ctrls3.writePktSize::2                   0                       # Write request sizes (log2)
system.mem_ctrls3.writePktSize::3                   0                       # Write request sizes (log2)
system.mem_ctrls3.writePktSize::4                   0                       # Write request sizes (log2)
system.mem_ctrls3.writePktSize::5                   0                       # Write request sizes (log2)
system.mem_ctrls3.writePktSize::6              122024                       # Write request sizes (log2)
system.mem_ctrls3.rdQLenPdf::0                  66941                       # What read queue length does an incoming req see
system.mem_ctrls3.rdQLenPdf::1                   1093                       # What read queue length does an incoming req see
system.mem_ctrls3.rdQLenPdf::2                    799                       # What read queue length does an incoming req see
system.mem_ctrls3.rdQLenPdf::3                    773                       # What read queue length does an incoming req see
system.mem_ctrls3.rdQLenPdf::4                    824                       # What read queue length does an incoming req see
system.mem_ctrls3.rdQLenPdf::5                    826                       # What read queue length does an incoming req see
system.mem_ctrls3.rdQLenPdf::6                    853                       # What read queue length does an incoming req see
system.mem_ctrls3.rdQLenPdf::7                    872                       # What read queue length does an incoming req see
system.mem_ctrls3.rdQLenPdf::8                    835                       # What read queue length does an incoming req see
system.mem_ctrls3.rdQLenPdf::9                    811                       # What read queue length does an incoming req see
system.mem_ctrls3.rdQLenPdf::10                   810                       # What read queue length does an incoming req see
system.mem_ctrls3.rdQLenPdf::11                   761                       # What read queue length does an incoming req see
system.mem_ctrls3.rdQLenPdf::12                   757                       # What read queue length does an incoming req see
system.mem_ctrls3.rdQLenPdf::13                   783                       # What read queue length does an incoming req see
system.mem_ctrls3.rdQLenPdf::14                   795                       # What read queue length does an incoming req see
system.mem_ctrls3.rdQLenPdf::15                   752                       # What read queue length does an incoming req see
system.mem_ctrls3.rdQLenPdf::16                   719                       # What read queue length does an incoming req see
system.mem_ctrls3.rdQLenPdf::17                   710                       # What read queue length does an incoming req see
system.mem_ctrls3.rdQLenPdf::18                   651                       # What read queue length does an incoming req see
system.mem_ctrls3.rdQLenPdf::19                   673                       # What read queue length does an incoming req see
system.mem_ctrls3.rdQLenPdf::20                   659                       # What read queue length does an incoming req see
system.mem_ctrls3.rdQLenPdf::21                   652                       # What read queue length does an incoming req see
system.mem_ctrls3.rdQLenPdf::22                   635                       # What read queue length does an incoming req see
system.mem_ctrls3.rdQLenPdf::23                   637                       # What read queue length does an incoming req see
system.mem_ctrls3.rdQLenPdf::24                   606                       # What read queue length does an incoming req see
[...]
system.ruby.L2Cache_Controller.IS.Mem_Data::total        13509                      
system.ruby.L2Cache_Controller.IM.L1_GETX |           3    100.00%    100.00% |           0      0.00%    100.00% |           0      0.00%    100.00% |           0      0.00%    100.00% |           0      0.00%    100.00% |           0      0.00%    100.00% |           0      0.00%    100.00% |           0      0.00%    100.00% |           0      0.00%    100.00% |           0      0.00%    100.00% |           0      0.00%    100.00% |           0      0.00%    100.00% |           0      0.00%    100.00% |           0      0.00%    100.00% |           0      0.00%    100.00% |           0      0.00%    100.00% |           0      0.00%    100.00% |           0      0.00%    100.00% |           0      0.00%    100.00% |           0      0.00%    100.00% |           0      0.00%    100.00% |           0      0.00%    100.00% |           0      0.00%    100.00% |           0      0.00%    100.00% |           0      0.00%    100.00% |           0      0.00%    100.00% |           0      0.00%    100.00% |           0      0.00%    100.00% |           0      0.00%    100.00% |           0      0.00%    100.00% |           0      0.00%    100.00% |           0      0.00%    100.00%
system.ruby.L2Cache_Controller.IM.L1_GETX::total            3                      
system.ruby.L2Cache_Controller.IM.Mem_Data |       15000      3.15%      3.15% |       14871      3.12%      6.27% |       14880      3.12%      9.39% |       14881      3.12%     12.52% |       14871      3.12%     15.64% |       14878      3.12%     18.76% |       14883      3.12%     21.89% |       14872      3.12%     25.01% |       14878      3.12%     28.13% |       14885      3.12%     31.26% |       14870      3.12%     34.38% |       14890      3.13%     37.50% |       14878      3.12%     40.63% |       14881      3.12%     43.75% |       14878      3.12%     46.87% |       14872      3.12%     49.99% |       14928      3.13%     53.13% |       14886      3.12%     56.25% |       14887      3.12%     59.38% |       14889      3.13%     62.50% |       14903      3.13%     65.63% |       14909      3.13%     68.76% |       14875      3.12%     71.88% |       14887      3.12%     75.01% |       14899      3.13%     78.14% |       14889      3.13%     81.26% |       14889      3.13%     84.39% |       14879      3.12%     87.51% |       14875      3.12%     90.63% |       14874      3.12%     93.75% |       14882      3.12%     96.88% |       14869      3.12%    100.00%
system.ruby.L2Cache_Controller.IM.Mem_Data::total       476388                      
system.ruby.L2Cache_Controller.SS_MB.Exclusive_Unblock |           3      6.12%      6.12% |           6     12.24%     18.37% |           2      4.08%     22.45% |           3      6.12%     28.57% |           0      0.00%     28.57% |           0      0.00%     28.57% |           0      0.00%     28.57% |           0      0.00%     28.57% |           1      2.04%     30.61% |           0      0.00%     30.61% |           0      0.00%     30.61% |           1      2.04%     32.65% |           4      8.16%     40.82% |           0      0.00%     40.82% |           2      4.08%     44.90% |           0      0.00%     44.90% |           1      2.04%     46.94% |           2      4.08%     51.02% |          13     26.53%     77.55% |           3      6.12%     83.67% |           0      0.00%     83.67% |           0      0.00%     83.67% |           0      0.00%     83.67% |           0      0.00%     83.67% |           1      2.04%     85.71% |           0      0.00%     85.71% |           3      6.12%     91.84% |           4      8.16%    100.00% |           0      0.00%    100.00% |           0      0.00%    100.00% |           0      0.00%    100.00% |           0      0.00%    100.00%
system.ruby.L2Cache_Controller.SS_MB.Exclusive_Unblock::total           49                      
system.ruby.L2Cache_Controller.MT_MB.Exclusive_Unblock |       75918      7.22%      7.22% |       32858      3.13%     10.35% |       29483      2.81%     13.15% |       32392      3.08%     16.24% |       29780      2.83%     19.07% |       29677      2.82%     21.89% |       29096      2.77%     24.66% |       29693      2.83%     27.49% |       30400      2.89%     30.38% |       29992      2.85%     33.23% |       32550      3.10%     36.33% |       30864      2.94%     39.27% |       30525      2.90%     42.17% |       30302      2.88%     45.05% |       29592      2.82%     47.87% |       30190      2.87%     50.74% |       31511      3.00%     53.74% |       30312      2.88%     56.62% |       30940      2.94%     59.57% |       31634      3.01%     62.58% |       32117      3.06%     65.63% |       37025      3.52%     69.16% |       31265      2.97%     72.13% |       31246      2.97%     75.10% |       31262      2.97%     78.08% |       31239      2.97%     81.05% |       31172      2.97%     84.02% |       30876      2.94%     86.95% |       32689      3.11%     90.06% |       32157      3.06%     93.12% |       34152      3.25%     96.37% |       38126      3.63%    100.00%
system.ruby.L2Cache_Controller.MT_MB.Exclusive_Unblock::total      1051035                      
system.ruby.L2Cache_Controller.MT_IIB.L1_PUTX |           0      0.00%      0.00% |           0      0.00%      0.00% |           0      0.00%      0.00% |           1    100.00%    100.00% |           0      0.00%    100.00% |           0      0.00%    100.00% |           0      0.00%    100.00% |           0      0.00%    100.00% |           0      0.00%    100.00% |           0      0.00%    100.00% |           0      0.00%    100.00% |           0      0.00%    100.00% |           0      0.00%    100.00% |           0      0.00%    100.00% |           0      0.00%    100.00% |           0      0.00%    100.00% |           0      0.00%    100.00% |           0      0.00%    100.00% |           0      0.00%    100.00% |           0      0.00%    100.00% |           0      0.00%    100.00% |           0      0.00%    100.00% |           0      0.00%    100.00% |           0      0.00%    100.00% |           0      0.00%    100.00% |           0      0.00%    100.00% |           0      0.00%    100.00% |           0      0.00%    100.00% |           0      0.00%    100.00% |           0      0.00%    100.00% |           0      0.00%    100.00% |           0      0.00%    100.00%
system.ruby.L2Cache_Controller.MT_IIB.L1_PUTX::total            1                      
system.ruby.L2Cache_Controller.MT_IIB.WB_Data |           3      3.70%      3.70% |           2      2.47%      6.17% |           1      1.23%      7.41% |           3      3.70%     11.11% |           3      3.70%     14.81% |           3      3.70%     18.52% |           4      4.94%     23.46% |           3      3.70%     27.16% |           5      6.17%     33.33% |           3      3.70%     37.04% |           2      2.47%     39.51% |           2      2.47%     41.98% |           3      3.70%     45.68% |           3      3.70%     49.38% |           4      4.94%     54.32% |           3      3.70%     58.02% |           3      3.70%     61.73% |           1      1.23%     62.96% |           2      2.47%     65.43% |           0      0.00%     65.43% |           1      1.23%     66.67% |           0      0.00%     66.67% |           1      1.23%     67.90% |           1      1.23%     69.14% |           3      3.70%     72.84% |           5      6.17%     79.01% |           4      4.94%     83.95% |           4      4.94%     88.89% |           3      3.70%     92.59% |           2      2.47%     95.06% |           2      2.47%     97.53% |           2      2.47%    100.00%
system.ruby.L2Cache_Controller.MT_IIB.WB_Data::total           81                      
system.ruby.L2Cache_Controller.MT_IIB.WB_Data_clean |          18     32.73%     32.73% |           0      0.00%     32.73% |           0      0.00%     32.73% |          15     27.27%     60.00% |           0      0.00%     60.00% |           0      0.00%     60.00% |           0      0.00%     60.00% |           0      0.00%     60.00% |           0      0.00%     60.00% |           0      0.00%     60.00% |           0      0.00%     60.00% |           0      0.00%     60.00% |           0      0.00%     60.00% |           0      0.00%     60.00% |           0      0.00%     60.00% |           0      0.00%     60.00% |           6     10.91%     70.91% |           0      0.00%     70.91% |           0      0.00%     70.91% |          14     25.45%     96.36% |           0      0.00%     96.36% |           0      0.00%     96.36% |           0      0.00%     96.36% |           0      0.00%     96.36% |           0      0.00%     96.36% |           0      0.00%     96.36% |           0      0.00%     96.36% |           2      3.64%    100.00% |           0      0.00%    100.00% |           0      0.00%    100.00% |           0      0.00%    100.00% |           0      0.00%    100.00%
system.ruby.L2Cache_Controller.MT_IIB.WB_Data_clean::total           55                      
system.ruby.L2Cache_Controller.MT_IIB.Unblock |           0      0.00%      0.00% |           0      0.00%      0.00% |           0      0.00%      0.00% |           0      0.00%      0.00% |           0      0.00%      0.00% |           0      0.00%      0.00% |           0      0.00%      0.00% |           0      0.00%      0.00% |           0      0.00%      0.00% |           0      0.00%      0.00% |           0      0.00%      0.00% |           0      0.00%      0.00% |           0      0.00%      0.00% |           0      0.00%      0.00% |           0      0.00%      0.00% |           0      0.00%      0.00% |           1     33.33%     33.33% |           0      0.00%     33.33% |           0      0.00%     33.33% |           0      0.00%     33.33% |           0      0.00%     33.33% |           0      0.00%     33.33% |           0      0.00%     33.33% |           1     33.33%     66.67% |           0      0.00%     66.67% |           0      0.00%     66.67% |           0      0.00%     66.67% |           1     33.33%    100.00% |           0      0.00%    100.00% |           0      0.00%    100.00% |           0      0.00%    100.00% |           0      0.00%    100.00%
system.ruby.L2Cache_Controller.MT_IIB.Unblock::total            3                      
system.ruby.L2Cache_Controller.MT_IB.WB_Data |           0      0.00%      0.00% |           0      0.00%      0.00% |           0      0.00%      0.00% |           0      0.00%      0.00% |           0      0.00%      0.00% |           0      0.00%      0.00% |           0      0.00%      0.00% |           0      0.00%      0.00% |           0      0.00%      0.00% |           0      0.00%      0.00% |           0      0.00%      0.00% |           0      0.00%      0.00% |           0      0.00%      0.00% |           0      0.00%      0.00% |           0      0.00%      0.00% |           0      0.00%      0.00% |           0      0.00%      0.00% |           0      0.00%      0.00% |           0      0.00%      0.00% |           0      0.00%      0.00% |           0      0.00%      0.00% |           0      0.00%      0.00% |           0      0.00%      0.00% |           1     50.00%     50.00% |           0      0.00%     50.00% |           0      0.00%     50.00% |           0      0.00%     50.00% |           1     50.00%    100.00% |           0      0.00%    100.00% |           0      0.00%    100.00% |           0      0.00%    100.00% |           0      0.00%    100.00%
system.ruby.L2Cache_Controller.MT_IB.WB_Data::total            2                      
system.ruby.L2Cache_Controller.MT_IB.WB_Data_clean |           0      0.00%      0.00% |           0      0.00%      0.00% |           0      0.00%      0.00% |           0      0.00%      0.00% |           0      0.00%      0.00% |           0      0.00%      0.00% |           0      0.00%      0.00% |           0      0.00%      0.00% |           0      0.00%      0.00% |           0      0.00%      0.00% |           0      0.00%      0.00% |           0      0.00%      0.00% |           0      0.00%      0.00% |           0      0.00%      0.00% |           0      0.00%      0.00% |           0      0.00%      0.00% |           1    100.00%    100.00% |           0      0.00%    100.00% |           0      0.00%    100.00% |           0      0.00%    100.00% |           0      0.00%    100.00% |           0      0.00%    100.00% |           0      0.00%    100.00% |           0      0.00%    100.00% |           0      0.00%    100.00% |           0      0.00%    100.00% |           0      0.00%    100.00% |           0      0.00%    100.00% |           0      0.00%    100.00% |           0      0.00%    100.00% |           0      0.00%    100.00% |           0      0.00%    100.00%
system.ruby.L2Cache_Controller.MT_IB.WB_Data_clean::total            1                      
system.ruby.L2Cache_Controller.MT_SB.Unblock |          21     15.44%     15.44% |           2      1.47%     16.91% |           1      0.74%     17.65% |          18     13.24%     30.88% |           3      2.21%     33.09% |           3      2.21%     35.29% |           4      2.94%     38.24% |           3      2.21%     40.44% |           5      3.68%     44.12% |           3      2.21%     46.32% |           2      1.47%     47.79% |           2      1.47%     49.26% |           3      2.21%     51.47% |           3      2.21%     53.68% |           4      2.94%     56.62% |           3      2.21%     58.82% |           9      6.62%     65.44% |           1      0.74%     66.18% |           2      1.47%     67.65% |          14     10.29%     77.94% |           1      0.74%     78.68% |           0      0.00%     78.68% |           1      0.74%     79.41% |           1      0.74%     80.15% |           3      2.21%     82.35% |           5      3.68%     86.03% |           4      2.94%     88.97% |           6      4.41%     93.38% |           3      2.21%     95.59% |           2      1.47%     97.06% |           2      1.47%     98.53% |           2      1.47%    100.00%
system.ruby.L2Cache_Controller.MT_SB.Unblock::total          136                      
system.ruby.SimicsNetworkPortInterface_Controller.MessageSend |       62704     16.91%     16.91% |      185384     50.00%     66.91% |        7881      2.13%     69.04% |        8403      2.27%     71.30% |        7725      2.08%     73.39% |        8443      2.28%     75.66% |        8015      2.16%     77.83% |        8403      2.27%     80.09% |        7093      1.91%     82.01% |        7566      2.04%     84.05% |        7128      1.92%     85.97% |        7527      2.03%     88.00% |        7817      2.11%     90.11% |        7491      2.02%     92.13% |        6755      1.82%     93.95% |        7099      1.91%     95.86% |        7406      2.00%     97.86% |        7928      2.14%    100.00% |           0      0.00%    100.00% |           0      0.00%    100.00% |           0      0.00%    100.00% |           0      0.00%    100.00% |           0      0.00%    100.00% |           0      0.00%    100.00% |           0      0.00%    100.00% |           0      0.00%    100.00% |           0      0.00%    100.00% |           0      0.00%    100.00% |           0      0.00%    100.00% |           0      0.00%    100.00% |           0      0.00%    100.00% |           0      0.00%    100.00%
system.ruby.SimicsNetworkPortInterface_Controller.MessageSend::total       370768                      
system.ruby.SimicsNetworkPortInterface_Controller.MessageRecv |       62704     16.91%     16.91% |      185384     50.00%     66.91% |        7881      2.13%     69.04% |        8403      2.27%     71.30% |        7725      2.08%     73.39% |        8443      2.28%     75.66% |        8015      2.16%     77.83% |        8403      2.27%     80.09% |        7093      1.91%     82.01% |        7566      2.04%     84.05% |        7128      1.92%     85.97% |        7527      2.03%     88.00% |        7817      2.11%     90.11% |        7491      2.02%     92.13% |        6755      1.82%     93.95% |        7099      1.91%     95.86% |        7406      2.00%     97.86% |        7928      2.14%    100.00% |           0      0.00%    100.00% |           0      0.00%    100.00% |           0      0.00%    100.00% |           0      0.00%    100.00% |           0      0.00%    100.00% |           0      0.00%    100.00% |           0      0.00%    100.00% |           0      0.00%    100.00% |           0      0.00%    100.00% |           0      0.00%    100.00% |           0      0.00%    100.00% |           0      0.00%    100.00% |           0      0.00%    100.00% |           0      0.00%    100.00%
system.ruby.SimicsNetworkPortInterface_Controller.MessageRecv::total       370768                      
system.ruby.SimicsNetworkPortInterface_Controller.A.MessageSend |       62704     16.91%     16.91% |      185384     50.00%     66.91% |        7881      2.13%     69.04% |        8403      2.27%     71.30% |        7725      2.08%     73.39% |        8443      2.28%     75.66% |        8015      2.16%     77.83% |        8403      2.27%     80.09% |        7093      1.91%     82.01% |        7566      2.04%     84.05% |        7128      1.92%     85.97% |        7527      2.03%     88.00% |        7817      2.11%     90.11% |        7491      2.02%     92.13% |        6755      1.82%     93.95% |        7099      1.91%     95.86% |        7406      2.00%     97.86% |        7928      2.14%    100.00% |           0      0.00%    100.00% |           0      0.00%    100.00% |           0      0.00%    100.00% |           0      0.00%    100.00% |           0      0.00%    100.00% |           0      0.00%    100.00% |           0      0.00%    100.00% |           0      0.00%    100.00% |           0      0.00%    100.00% |           0      0.00%    100.00% |           0      0.00%    100.00% |           0      0.00%    100.00% |           0      0.00%    100.00% |           0      0.00%    100.00%
system.ruby.SimicsNetworkPortInterface_Controller.A.MessageSend::total       370768                      
system.ruby.SimicsNetworkPortInterface_Controller.A.MessageRecv |       62704     16.91%     16.91% |      185384     50.00%     66.91% |        7881      2.13%     69.04% |        8403      2.27%     71.30% |        7725      2.08%     73.39% |        8443      2.28%     75.66% |        8015      2.16%     77.83% |        8403      2.27%     80.09% |        7093      1.91%     82.01% |        7566      2.04%     84.05% |        7128      1.92%     85.97% |        7527      2.03%     88.00% |        7817      2.11%     90.11% |        7491      2.02%     92.13% |        6755      1.82%     93.95% |        7099      1.91%     95.86% |        7406      2.00%     97.86% |        7928      2.14%    100.00% |           0      0.00%    100.00% |           0      0.00%    100.00% |           0      0.00%    100.00% |           0      0.00%    100.00% |           0      0.00%    100.00% |           0      0.00%    100.00% |           0      0.00%    100.00% |           0      0.00%    100.00% |           0      0.00%    100.00% |           0      0.00%    100.00% |           0      0.00%    100.00% |           0      0.00%    100.00% |           0      0.00%    100.00% |           0      0.00%    100.00%
system.ruby.SimicsNetworkPortInterface_Controller.A.MessageRecv::total       370768                      
system.switch_cpus.kern.inst.arm                    0                       # number of arm instructions executed
system.switch_cpus.kern.inst.quiesce                0                       # number of quiesce instructions executed

---------- End Simulation Statistics   ----------
