
---------- Begin Simulation Statistics ----------
sim_seconds                                  0.053639                       # Number of seconds simulated
sim_ticks                                 53639349000                       # Number of ticks simulated
final_tick                               5229807427500                       # Number of ticks from beginning of simulation (restored from checkpoints and never reset)
sim_freq                                 1000000000000                       # Frequency of simulated ticks
host_inst_rate                                  36848                       # Simulator instruction rate (inst/s)
host_op_rate                                    67558                       # Simulator op (including micro ops) rate (op/s)
host_tick_rate                               61630721                       # Simulator tick rate (ticks/s)
host_mem_usage                                4802020                       # Number of bytes of host memory used
host_seconds                                   870.33                       # Real time elapsed on the host
sim_insts                                    32070444                       # Number of instructions simulated
sim_ops                                      58798147                       # Number of ops (including micro ops) simulated
system.voltage_domain.voltage                       1                       # Voltage in Volts
system.clk_domain.clock                           500                       # Clock period in ticks
system.mem_ctrls0.bytes_read::ruby.dir_cntrl0     14105024                       # Number of bytes read from this memory
system.mem_ctrls0.bytes_read::total          14105024                       # Number of bytes read from this memory
system.mem_ctrls0.bytes_written::ruby.dir_cntrl0      4028096                       # Number of bytes written to this memory
system.mem_ctrls0.bytes_written::total        4028096                       # Number of bytes written to this memory
system.mem_ctrls0.num_reads::ruby.dir_cntrl0       220391                       # Number of read requests responded to by this memory
system.mem_ctrls0.num_reads::total             220391                       # Number of read requests responded to by this memory
system.mem_ctrls0.num_writes::ruby.dir_cntrl0        62939                       # Number of write requests responded to by this memory
system.mem_ctrls0.num_writes::total             62939                       # Number of write requests responded to by this memory
system.mem_ctrls0.bw_read::ruby.dir_cntrl0    262960388                       # Total read bandwidth from this memory (bytes/s)
system.mem_ctrls0.bw_read::total            262960388                       # Total read bandwidth from this memory (bytes/s)
system.mem_ctrls0.bw_write::ruby.dir_cntrl0     75095915                       # Write bandwidth from this memory (bytes/s)
system.mem_ctrls0.bw_write::total            75095915                       # Write bandwidth from this memory (bytes/s)
system.mem_ctrls0.bw_total::ruby.dir_cntrl0    338056303                       # Total bandwidth to/from this memory (bytes/s)
system.mem_ctrls0.bw_total::total           338056303                       # Total bandwidth to/from this memory (bytes/s)
system.mem_ctrls0.readReqs                     220391                       # Number of read requests accepted
system.mem_ctrls0.writeReqs                     62939                       # Number of write requests accepted
system.mem_ctrls0.readBursts                   220391                       # Number of DRAM read bursts, including those serviced by the write queue
system.mem_ctrls0.writeBursts                   62939                       # Number of DRAM write bursts, including those merged in the write queue
system.mem_ctrls0.bytesReadDRAM              14102656                       # Total number of bytes read from DRAM
system.mem_ctrls0.bytesReadWrQ                   2368                       # Total number of bytes read from write queue
system.mem_ctrls0.bytesWritten                4028032                       # Total number of bytes written to DRAM
system.mem_ctrls0.bytesReadSys               14105024                       # Total read bytes from the system interface side
system.mem_ctrls0.bytesWrittenSys             4028096                       # Total written bytes from the system interface side
system.mem_ctrls0.servicedByWrQ                    37                       # Number of DRAM read bursts serviced by the write queue
system.mem_ctrls0.mergedWrBursts                    0                       # Number of DRAM write bursts merged with an existing one
system.mem_ctrls0.neitherReadNorWriteReqs            0                       # Number of requests that are neither read nor write
system.mem_ctrls0.perBankRdBursts::0            13534                       # Per bank write bursts
system.mem_ctrls0.perBankRdBursts::1            14039                       # Per bank write bursts
system.mem_ctrls0.perBankRdBursts::2            13708                       # Per bank write bursts
system.mem_ctrls0.perBankRdBursts::3            14156                       # Per bank write bursts
system.mem_ctrls0.perBankRdBursts::4            13780                       # Per bank write bursts
system.mem_ctrls0.perBankRdBursts::5            14356                       # Per bank write bursts
system.mem_ctrls0.perBankRdBursts::6            13801                       # Per bank write bursts
system.mem_ctrls0.perBankRdBursts::7            13719                       # Per bank write bursts
system.mem_ctrls0.perBankRdBursts::8            13631                       # Per bank write bursts
system.mem_ctrls0.perBankRdBursts::9            13989                       # Per bank write bursts
system.mem_ctrls0.perBankRdBursts::10           13677                       # Per bank write bursts
system.mem_ctrls0.perBankRdBursts::11           13897                       # Per bank write bursts
system.mem_ctrls0.perBankRdBursts::12           13434                       # Per bank write bursts
system.mem_ctrls0.perBankRdBursts::13           13339                       # Per bank write bursts
system.mem_ctrls0.perBankRdBursts::14           13644                       # Per bank write bursts
system.mem_ctrls0.perBankRdBursts::15           13650                       # Per bank write bursts
system.mem_ctrls0.perBankWrBursts::0             3866                       # Per bank write bursts
system.mem_ctrls0.perBankWrBursts::1             3936                       # Per bank write bursts
system.mem_ctrls0.perBankWrBursts::2             3918                       # Per bank write bursts
system.mem_ctrls0.perBankWrBursts::3             4166                       # Per bank write bursts
system.mem_ctrls0.perBankWrBursts::4             3953                       # Per bank write bursts
system.mem_ctrls0.perBankWrBursts::5             4094                       # Per bank write bursts
system.mem_ctrls0.perBankWrBursts::6             3997                       # Per bank write bursts
system.mem_ctrls0.perBankWrBursts::7             3953                       # Per bank write bursts
system.mem_ctrls0.perBankWrBursts::8             3848                       # Per bank write bursts
system.mem_ctrls0.perBankWrBursts::9             4100                       # Per bank write bursts
system.mem_ctrls0.perBankWrBursts::10            3859                       # Per bank write bursts
system.mem_ctrls0.perBankWrBursts::11            3791                       # Per bank write bursts
system.mem_ctrls0.perBankWrBursts::12            3733                       # Per bank write bursts
system.mem_ctrls0.perBankWrBursts::13            3790                       # Per bank write bursts
system.mem_ctrls0.perBankWrBursts::14            4040                       # Per bank write bursts
system.mem_ctrls0.perBankWrBursts::15            3894                       # Per bank write bursts
system.mem_ctrls0.numRdRetry                     6841                       # Number of times read queue was full causing retry
system.mem_ctrls0.numWrRetry                     1335                       # Number of times write queue was full causing retry
system.mem_ctrls0.totGap                  53638857500                       # Total gap between requests
system.mem_ctrls0.readPktSize::0                    0                       # Read request sizes (log2)
system.mem_ctrls0.readPktSize::1                    0                       # Read request sizes (log2)
system.mem_ctrls0.readPktSize::2                    0                       # Read request sizes (log2)
system.mem_ctrls0.readPktSize::3                    0                       # Read request sizes (log2)
system.mem_ctrls0.readPktSize::4                    0                       # Read request sizes (log2)
system.mem_ctrls0.readPktSize::5                    0                       # Read request sizes (log2)
system.mem_ctrls0.readPktSize::6               220391                       # Read request sizes (log2)
system.mem_ctrls0.writePktSize::0                   0                       # Write request sizes (log2)
system.mem_ctrls0.writePktSize::1                   0                       # Write request sizes (log2)
system.mem_ctrls0.writePktSize::2                   0                       # Write request sizes (log2)
system.mem_ctrls0.writePktSize::3                   0                       # Write request sizes (log2)
system.mem_ctrls0.writePktSize::4                   0                       # Write request sizes (log2)
system.mem_ctrls0.writePktSize::5                   0                       # Write request sizes (log2)
system.mem_ctrls0.writePktSize::6               62939                       # Write request sizes (log2)
system.mem_ctrls0.rdQLenPdf::0                  79511                       # What read queue length does an incoming req see
system.mem_ctrls0.rdQLenPdf::1                  29587                       # What read queue length does an incoming req see
system.mem_ctrls0.rdQLenPdf::2                  33683                       # What read queue length does an incoming req see
system.mem_ctrls0.rdQLenPdf::3                  28745                       # What read queue length does an incoming req see
system.mem_ctrls0.rdQLenPdf::4                  18979                       # What read queue length does an incoming req see
system.mem_ctrls0.rdQLenPdf::5                  10692                       # What read queue length does an incoming req see
system.mem_ctrls0.rdQLenPdf::6                   5278                       # What read queue length does an incoming req see
system.mem_ctrls0.rdQLenPdf::7                   2557                       # What read queue length does an incoming req see
system.mem_ctrls0.rdQLenPdf::8                   1232                       # What read queue length does an incoming req see
system.mem_ctrls0.rdQLenPdf::9                    664                       # What read queue length does an incoming req see
system.mem_ctrls0.rdQLenPdf::10                   401                       # What read queue length does an incoming req see
system.mem_ctrls0.rdQLenPdf::11                   294                       # What read queue length does an incoming req see
system.mem_ctrls0.rdQLenPdf::12                   214                       # What read queue length does an incoming req see
system.mem_ctrls0.rdQLenPdf::13                   155                       # What read queue length does an incoming req see
system.mem_ctrls0.rdQLenPdf::14                   124                       # What read queue length does an incoming req see
system.mem_ctrls0.rdQLenPdf::15                   112                       # What read queue length does an incoming req see
system.mem_ctrls0.rdQLenPdf::16                    88                       # What read queue length does an incoming req see
system.mem_ctrls0.rdQLenPdf::17                    77                       # What read queue length does an incoming req see
system.mem_ctrls0.rdQLenPdf::18                    75                       # What read queue length does an incoming req see
system.mem_ctrls0.rdQLenPdf::19                    69                       # What read queue length does an incoming req see
system.mem_ctrls0.rdQLenPdf::20                    48                       # What read queue length does an incoming req see
system.mem_ctrls0.rdQLenPdf::21                    37                       # What read queue length does an incoming req see
system.mem_ctrls0.rdQLenPdf::22                    37                       # What read queue length does an incoming req see
system.mem_ctrls0.rdQLenPdf::23                    39                       # What read queue length does an incoming req see
system.mem_ctrls0.rdQLenPdf::24                    36                       # What read queue length does an incoming req see
system.mem_ctrls0.rdQLenPdf::25                    42                       # What read queue length does an incoming req see
system.mem_ctrls0.rdQLenPdf::26                    43                       # What read queue length does an incoming req see
system.mem_ctrls0.rdQLenPdf::27                    60                       # What read queue length does an incoming req see
system.mem_ctrls0.rdQLenPdf::28                    56                       # What read queue length does an incoming req see
system.mem_ctrls0.rdQLenPdf::29                    77                       # What read queue length does an incoming req see
system.mem_ctrls0.rdQLenPdf::30                   140                       # What read queue length does an incoming req see
system.mem_ctrls0.rdQLenPdf::31                  7202                       # What read queue length does an incoming req see
system.mem_ctrls0.wrQLenPdf::0                  11584                       # What write queue length does an incoming req see
system.mem_ctrls0.wrQLenPdf::1                  11840                       # What write queue length does an incoming req see
system.mem_ctrls0.wrQLenPdf::2                  11845                       # What write queue length does an incoming req see
system.mem_ctrls0.wrQLenPdf::3                  11837                       # What write queue length does an incoming req see
system.mem_ctrls0.wrQLenPdf::4                  11846                       # What write queue length does an incoming req see
system.mem_ctrls0.wrQLenPdf::5                    752                       # What write queue length does an incoming req see
system.mem_ctrls0.wrQLenPdf::6                    874                       # What write queue length does an incoming req see
system.mem_ctrls0.wrQLenPdf::7                   2361                       # What write queue length does an incoming req see
system.mem_ctrls0.bytesPerActivate::samples       168661                       # Bytes accessed per row activation
system.mem_ctrls0.bytesPerActivate::mean   107.492876                       # Bytes accessed per row activation
system.mem_ctrls0.bytesPerActivate::gmean    84.121749                       # Bytes accessed per row activation
system.mem_ctrls0.bytesPerActivate::stdev   116.466546                       # Bytes accessed per row activation
system.mem_ctrls0.bytesPerActivate::0-127       132279     78.43%     78.43% # Bytes accessed per row activation
system.mem_ctrls0.bytesPerActivate::128-255        18169     10.77%     89.20% # Bytes accessed per row activation
system.mem_ctrls0.bytesPerActivate::256-383        13457      7.98%     97.18% # Bytes accessed per row activation
system.mem_ctrls0.bytesPerActivate::384-511         1699      1.01%     98.19% # Bytes accessed per row activation
system.mem_ctrls0.bytesPerActivate::512-639         1049      0.62%     98.81% # Bytes accessed per row activation
system.mem_ctrls0.bytesPerActivate::640-767          614      0.36%     99.17% # Bytes accessed per row activation
system.mem_ctrls0.bytesPerActivate::768-895          431      0.26%     99.43% # Bytes accessed per row activation
system.mem_ctrls0.bytesPerActivate::896-1023          379      0.22%     99.65% # Bytes accessed per row activation
system.mem_ctrls0.bytesPerActivate::1024-1151          584      0.35%    100.00% # Bytes accessed per row activation
system.mem_ctrls0.bytesPerActivate::total       168661                       # Bytes accessed per row activation
system.mem_ctrls0.rdPerTurnAround::samples        11691                       # Reads before turning the bus around for writes
system.mem_ctrls0.rdPerTurnAround::mean     18.845351                       # Reads before turning the bus around for writes
system.mem_ctrls0.rdPerTurnAround::stdev    88.085737                       # Reads before turning the bus around for writes
system.mem_ctrls0.rdPerTurnAround::0-127        11378     97.32%     97.32% # Reads before turning the bus around for writes
system.mem_ctrls0.rdPerTurnAround::128-255          202      1.73%     99.05% # Reads before turning the bus around for writes
system.mem_ctrls0.rdPerTurnAround::256-383           38      0.33%     99.38% # Reads before turning the bus around for writes
system.mem_ctrls0.rdPerTurnAround::384-511           27      0.23%     99.61% # Reads before turning the bus around for writes
system.mem_ctrls0.rdPerTurnAround::512-639            8      0.07%     99.67% # Reads before turning the bus around for writes
system.mem_ctrls0.rdPerTurnAround::640-767           11      0.09%     99.77% # Reads before turning the bus around for writes
system.mem_ctrls0.rdPerTurnAround::768-895            4      0.03%     99.80% # Reads before turning the bus around for writes
system.mem_ctrls0.rdPerTurnAround::896-1023            4      0.03%     99.84% # Reads before turning the bus around for writes
system.mem_ctrls0.rdPerTurnAround::1152-1279            3      0.03%     99.86% # Reads before turning the bus around for writes
system.mem_ctrls0.rdPerTurnAround::1280-1407            3      0.03%     99.89% # Reads before turning the bus around for writes
system.mem_ctrls0.rdPerTurnAround::1408-1535            4      0.03%     99.92% # Reads before turning the bus around for writes
system.mem_ctrls0.rdPerTurnAround::1536-1663            2      0.02%     99.94% # Reads before turning the bus around for writes
system.mem_ctrls0.rdPerTurnAround::1664-1791            1      0.01%     99.95% # Reads before turning the bus around for writes
system.mem_ctrls0.rdPerTurnAround::1792-1919            3      0.03%     99.97% # Reads before turning the bus around for writes
system.mem_ctrls0.rdPerTurnAround::2048-2175            1      0.01%     99.98% # Reads before turning the bus around for writes
system.mem_ctrls0.rdPerTurnAround::2176-2303            1      0.01%     99.99% # Reads before turning the bus around for writes
system.mem_ctrls0.rdPerTurnAround::3968-4095            1      0.01%    100.00% # Reads before turning the bus around for writes
system.mem_ctrls0.rdPerTurnAround::total        11691                       # Reads before turning the bus around for writes
system.mem_ctrls0.wrPerTurnAround::samples        11691                       # Writes before turning the bus around for reads
system.mem_ctrls0.wrPerTurnAround::mean      5.383457                       # Writes before turning the bus around for reads
system.mem_ctrls0.wrPerTurnAround::gmean     5.236817                       # Writes before turning the bus around for reads
system.mem_ctrls0.wrPerTurnAround::stdev     1.773389                       # Writes before turning the bus around for reads
system.mem_ctrls0.wrPerTurnAround::4-7          11227     96.03%     96.03% # Writes before turning the bus around for reads
system.mem_ctrls0.wrPerTurnAround::8-11           114      0.98%     97.01% # Writes before turning the bus around for reads
system.mem_ctrls0.wrPerTurnAround::12-15          161      1.38%     98.38% # Writes before turning the bus around for reads
system.mem_ctrls0.wrPerTurnAround::16-19          189      1.62%    100.00% # Writes before turning the bus around for reads
system.mem_ctrls0.wrPerTurnAround::total        11691                       # Writes before turning the bus around for reads
system.mem_ctrls0.totQLat                  8819890508                       # Total ticks spent queuing
system.mem_ctrls0.totMemAccLat            12951528008                       # Total ticks spent from burst creation until serviced by the DRAM
system.mem_ctrls0.totBusLat                1101770000                       # Total ticks spent in databus transfers
system.mem_ctrls0.avgQLat                    40026.01                       # Average queueing delay per DRAM burst
system.mem_ctrls0.avgBusLat                   5000.00                       # Average bus latency per DRAM burst
system.mem_ctrls0.avgMemAccLat               58776.01                       # Average memory access latency per DRAM burst
system.mem_ctrls0.avgRdBW                      262.92                       # Average DRAM read bandwidth in MiByte/s
system.mem_ctrls0.avgWrBW                       75.09                       # Average achieved write bandwidth in MiByte/s
system.mem_ctrls0.avgRdBWSys                   262.96                       # Average system read bandwidth in MiByte/s
system.mem_ctrls0.avgWrBWSys                    75.10                       # Average system write bandwidth in MiByte/s
system.mem_ctrls0.peakBW                     12800.00                       # Theoretical peak bandwidth in MiByte/s
system.mem_ctrls0.busUtil                        2.64                       # Data bus utilization in percentage
system.mem_ctrls0.busUtilRead                    2.05                       # Data bus utilization in percentage for reads
system.mem_ctrls0.busUtilWrite                   0.59                       # Data bus utilization in percentage for writes
system.mem_ctrls0.avgRdQLen                      1.24                       # Average read queue length when enqueuing
system.mem_ctrls0.avgWrQLen                      2.85                       # Average write queue length when enqueuing
system.mem_ctrls0.readRowHits                   78134                       # Number of row buffer hits during reads
system.mem_ctrls0.writeRowHits                  36488                       # Number of row buffer hits during writes
system.mem_ctrls0.readRowHitRate                35.46                       # Row buffer hit rate for reads
system.mem_ctrls0.writeRowHitRate               57.97                       # Row buffer hit rate for writes
system.mem_ctrls0.avgGap                    189315.84                       # Average gap between requests
system.mem_ctrls0.pageHitRate                   40.46                       # Row buffer hit rate, read and write combined
system.mem_ctrls0.memoryStateTime::IDLE   10784249500                       # Time in different power states
system.mem_ctrls0.memoryStateTime::REF     1790880000                       # Time in different power states
system.mem_ctrls0.memoryStateTime::PRE_PDN            0                       # Time in different power states
system.mem_ctrls0.memoryStateTime::ACT    41056953000                       # Time in different power states
system.mem_ctrls0.memoryStateTime::ACT_PDN            0                       # Time in different power states
system.mem_ctrls0.actEnergy::0              637466760                       # Energy for activate commands per rank (pJ)
system.mem_ctrls0.actEnergy::1              637489440                       # Energy for activate commands per rank (pJ)
system.mem_ctrls0.preEnergy::0              347824125                       # Energy for precharge commands per rank (pJ)
system.mem_ctrls0.preEnergy::1              347836500                       # Energy for precharge commands per rank (pJ)
system.mem_ctrls0.readEnergy::0             866361600                       # Energy for read commands per rank (pJ)
system.mem_ctrls0.readEnergy::1             852165600                       # Energy for read commands per rank (pJ)
system.mem_ctrls0.writeEnergy::0            206601840                       # Energy for write commands per rank (pJ)
system.mem_ctrls0.writeEnergy::1            201236400                       # Energy for write commands per rank (pJ)
system.mem_ctrls0.refreshEnergy::0         3502961280                       # Energy for refresh commands per rank (pJ)
system.mem_ctrls0.refreshEnergy::1         3502961280                       # Energy for refresh commands per rank (pJ)
system.mem_ctrls0.actBackEnergy::0        21494684610                       # Energy for active background per rank (pJ)
system.mem_ctrls0.actBackEnergy::1        20985761250                       # Energy for active background per rank (pJ)
system.mem_ctrls0.preBackEnergy::0        13324183500                       # Energy for precharge background per rank (pJ)
system.mem_ctrls0.preBackEnergy::1        13770607500                       # Energy for precharge background per rank (pJ)
system.mem_ctrls0.totalEnergy::0          40380083715                       # Total energy per rank (pJ)
system.mem_ctrls0.totalEnergy::1          40298057970                       # Total energy per rank (pJ)
system.mem_ctrls0.averagePower::0          752.910974                       # Core power per rank (mW)
system.mem_ctrls0.averagePower::1          751.381555                       # Core power per rank (mW)
system.mem_ctrls1.bytes_read::ruby.dir_cntrl1     13844800                       # Number of bytes read from this memory
system.mem_ctrls1.bytes_read::total          13844800                       # Number of bytes read from this memory
system.mem_ctrls1.bytes_written::ruby.dir_cntrl1      3845312                       # Number of bytes written to this memory
system.mem_ctrls1.bytes_written::total        3845312                       # Number of bytes written to this memory
system.mem_ctrls1.num_reads::ruby.dir_cntrl1       216325                       # Number of read requests responded to by this memory
system.mem_ctrls1.num_reads::total             216325                       # Number of read requests responded to by this memory
system.mem_ctrls1.num_writes::ruby.dir_cntrl1        60083                       # Number of write requests responded to by this memory
system.mem_ctrls1.num_writes::total             60083                       # Number of write requests responded to by this memory
system.mem_ctrls1.bw_read::ruby.dir_cntrl1    258109024                       # Total read bandwidth from this memory (bytes/s)
system.mem_ctrls1.bw_read::total            258109024                       # Total read bandwidth from this memory (bytes/s)
system.mem_ctrls1.bw_write::ruby.dir_cntrl1     71688268                       # Write bandwidth from this memory (bytes/s)
system.mem_ctrls1.bw_write::total            71688268                       # Write bandwidth from this memory (bytes/s)
system.mem_ctrls1.bw_total::ruby.dir_cntrl1    329797291                       # Total bandwidth to/from this memory (bytes/s)
system.mem_ctrls1.bw_total::total           329797291                       # Total bandwidth to/from this memory (bytes/s)
system.mem_ctrls1.readReqs                     216325                       # Number of read requests accepted
system.mem_ctrls1.writeReqs                     60083                       # Number of write requests accepted
system.mem_ctrls1.readBursts                   216325                       # Number of DRAM read bursts, including those serviced by the write queue
system.mem_ctrls1.writeBursts                   60083                       # Number of DRAM write bursts, including those merged in the write queue
system.mem_ctrls1.bytesReadDRAM              13843136                       # Total number of bytes read from DRAM
system.mem_ctrls1.bytesReadWrQ                   1664                       # Total number of bytes read from write queue
system.mem_ctrls1.bytesWritten                3845184                       # Total number of bytes written to DRAM
system.mem_ctrls1.bytesReadSys               13844800                       # Total read bytes from the system interface side
system.mem_ctrls1.bytesWrittenSys             3845312                       # Total written bytes from the system interface side
system.mem_ctrls1.servicedByWrQ                    26                       # Number of DRAM read bursts serviced by the write queue
system.mem_ctrls1.mergedWrBursts                    0                       # Number of DRAM write bursts merged with an existing one
system.mem_ctrls1.neitherReadNorWriteReqs            0                       # Number of requests that are neither read nor write
system.mem_ctrls1.perBankRdBursts::0            13290                       # Per bank write bursts
system.mem_ctrls1.perBankRdBursts::1            13797                       # Per bank write bursts
system.mem_ctrls1.perBankRdBursts::2            13465                       # Per bank write bursts
system.mem_ctrls1.perBankRdBursts::3            13893                       # Per bank write bursts
system.mem_ctrls1.perBankRdBursts::4            13527                       # Per bank write bursts
system.mem_ctrls1.perBankRdBursts::5            14121                       # Per bank write bursts
system.mem_ctrls1.perBankRdBursts::6            13528                       # Per bank write bursts
system.mem_ctrls1.perBankRdBursts::7            13503                       # Per bank write bursts
system.mem_ctrls1.perBankRdBursts::8            13379                       # Per bank write bursts
system.mem_ctrls1.perBankRdBursts::9            13701                       # Per bank write bursts
system.mem_ctrls1.perBankRdBursts::10           13417                       # Per bank write bursts
system.mem_ctrls1.perBankRdBursts::11           13654                       # Per bank write bursts
system.mem_ctrls1.perBankRdBursts::12           13210                       # Per bank write bursts
system.mem_ctrls1.perBankRdBursts::13           13101                       # Per bank write bursts
system.mem_ctrls1.perBankRdBursts::14           13294                       # Per bank write bursts
system.mem_ctrls1.perBankRdBursts::15           13419                       # Per bank write bursts
system.mem_ctrls1.perBankWrBursts::0             3694                       # Per bank write bursts
system.mem_ctrls1.perBankWrBursts::1             3779                       # Per bank write bursts
system.mem_ctrls1.perBankWrBursts::2             3758                       # Per bank write bursts
system.mem_ctrls1.perBankWrBursts::3             3991                       # Per bank write bursts
system.mem_ctrls1.perBankWrBursts::4             3779                       # Per bank write bursts
system.mem_ctrls1.perBankWrBursts::5             3927                       # Per bank write bursts
system.mem_ctrls1.perBankWrBursts::6             3803                       # Per bank write bursts
system.mem_ctrls1.perBankWrBursts::7             3776                       # Per bank write bursts
system.mem_ctrls1.perBankWrBursts::8             3674                       # Per bank write bursts
system.mem_ctrls1.perBankWrBursts::9             3908                       # Per bank write bursts
system.mem_ctrls1.perBankWrBursts::10            3680                       # Per bank write bursts
system.mem_ctrls1.perBankWrBursts::11            3613                       # Per bank write bursts
system.mem_ctrls1.perBankWrBursts::12            3566                       # Per bank write bursts
system.mem_ctrls1.perBankWrBursts::13            3609                       # Per bank write bursts
system.mem_ctrls1.perBankWrBursts::14            3804                       # Per bank write bursts
system.mem_ctrls1.perBankWrBursts::15            3720                       # Per bank write bursts
system.mem_ctrls1.numRdRetry                     4639                       # Number of times read queue was full causing retry
system.mem_ctrls1.numWrRetry                     1213                       # Number of times write queue was full causing retry
system.mem_ctrls1.totGap                  53638598500                       # Total gap between requests
system.mem_ctrls1.readPktSize::0                    0                       # Read request sizes (log2)
system.mem_ctrls1.readPktSize::1                    0                       # Read request sizes (log2)
system.mem_ctrls1.readPktSize::2                    0                       # Read request sizes (log2)
system.mem_ctrls1.readPktSize::3                    0                       # Read request sizes (log2)
system.mem_ctrls1.readPktSize::4                    0                       # Read request sizes (log2)
system.mem_ctrls1.readPktSize::5                    0                       # Read request sizes (log2)
system.mem_ctrls1.readPktSize::6               216325                       # Read request sizes (log2)
system.mem_ctrls1.writePktSize::0                   0                       # Write request sizes (log2)
system.mem_ctrls1.writePktSize::1                   0                       # Write request sizes (log2)
system.mem_ctrls1.writePktSize::2                   0                       # Write request sizes (log2)
system.mem_ctrls1.writePktSize::3                   0                       # Write request sizes (log2)
system.mem_ctrls1.writePktSize::4                   0                       # Write request sizes (log2)
system.mem_ctrls1.writePktSize::5                   0                       # Write request sizes (log2)
system.mem_ctrls1.writePktSize::6               60083                       # Write request sizes (log2)
system.mem_ctrls1.rdQLenPdf::0                  77210                       # What read queue length does an incoming req see
system.mem_ctrls1.rdQLenPdf::1                  30104                       # What read queue length does an incoming req see
system.mem_ctrls1.rdQLenPdf::2                  33579                       # What read queue length does an incoming req see
system.mem_ctrls1.rdQLenPdf::3                  28518                       # What read queue length does an incoming req see
system.mem_ctrls1.rdQLenPdf::4                  18893                       # What read queue length does an incoming req see
system.mem_ctrls1.rdQLenPdf::5                  10137                       # What read queue length does an incoming req see
system.mem_ctrls1.rdQLenPdf::6                   4981                       # What read queue length does an incoming req see
system.mem_ctrls1.rdQLenPdf::7                   2307                       # What read queue length does an incoming req see
system.mem_ctrls1.rdQLenPdf::8                   1275                       # What read queue length does an incoming req see
system.mem_ctrls1.rdQLenPdf::9                    732                       # What read queue length does an incoming req see
system.mem_ctrls1.rdQLenPdf::10                   431                       # What read queue length does an incoming req see
system.mem_ctrls1.rdQLenPdf::11                   308                       # What read queue length does an incoming req see
system.mem_ctrls1.rdQLenPdf::12                   264                       # What read queue length does an incoming req see
system.mem_ctrls1.rdQLenPdf::13                   226                       # What read queue length does an incoming req see
system.mem_ctrls1.rdQLenPdf::14                   216                       # What read queue length does an incoming req see
system.mem_ctrls1.rdQLenPdf::15                   183                       # What read queue length does an incoming req see
system.mem_ctrls1.rdQLenPdf::16                   162                       # What read queue length does an incoming req see
system.mem_ctrls1.rdQLenPdf::17                   144                       # What read queue length does an incoming req see
system.mem_ctrls1.rdQLenPdf::18                   125                       # What read queue length does an incoming req see
system.mem_ctrls1.rdQLenPdf::19                   122                       # What read queue length does an incoming req see
system.mem_ctrls1.rdQLenPdf::20                    97                       # What read queue length does an incoming req see
system.mem_ctrls1.rdQLenPdf::21                   102                       # What read queue length does an incoming req see
system.mem_ctrls1.rdQLenPdf::22                   104                       # What read queue length does an incoming req see
system.mem_ctrls1.rdQLenPdf::23                   108                       # What read queue length does an incoming req see
system.mem_ctrls1.rdQLenPdf::24                   120                       # What read queue length does an incoming req see
system.mem_ctrls1.rdQLenPdf::25                   114                       # What read queue length does an incoming req see
system.mem_ctrls1.rdQLenPdf::26                   124                       # What read queue length does an incoming req see
system.mem_ctrls1.rdQLenPdf::27                   128                       # What read queue length does an incoming req see
system.mem_ctrls1.rdQLenPdf::28                   114                       # What read queue length does an incoming req see
system.mem_ctrls1.rdQLenPdf::29                   139                       # What read queue length does an incoming req see
system.mem_ctrls1.rdQLenPdf::30                   211                       # What read queue length does an incoming req see
system.mem_ctrls1.rdQLenPdf::31                  5021                       # What read queue length does an incoming req see
system.mem_ctrls1.wrQLenPdf::0                  11019                       # What write queue length does an incoming req see
system.mem_ctrls1.wrQLenPdf::1                  11300                       # What write queue length does an incoming req see
system.mem_ctrls1.wrQLenPdf::2                  11370                       # What write queue length does an incoming req see
system.mem_ctrls1.wrQLenPdf::3                  11334                       # What write queue length does an incoming req see
system.mem_ctrls1.wrQLenPdf::4                  11366                       # What write queue length does an incoming req see
system.mem_ctrls1.wrQLenPdf::5                    767                       # What write queue length does an incoming req see
system.mem_ctrls1.wrQLenPdf::6                    801                       # What write queue length does an incoming req see
system.mem_ctrls1.wrQLenPdf::7                   2126                       # What write queue length does an incoming req see
system.mem_ctrls1.bytesPerActivate::samples       163307                       # Bytes accessed per row activation
system.mem_ctrls1.bytesPerActivate::mean   108.307029                       # Bytes accessed per row activation
system.mem_ctrls1.bytesPerActivate::gmean    84.172519                       # Bytes accessed per row activation
system.mem_ctrls1.bytesPerActivate::stdev   119.814595                       # Bytes accessed per row activation
system.mem_ctrls1.bytesPerActivate::0-127       128298     78.56%     78.56% # Bytes accessed per row activation
system.mem_ctrls1.bytesPerActivate::128-255        17213     10.54%     89.10% # Bytes accessed per row activation
system.mem_ctrls1.bytesPerActivate::256-383        12941      7.92%     97.03% # Bytes accessed per row activation
system.mem_ctrls1.bytesPerActivate::384-511         1614      0.99%     98.02% # Bytes accessed per row activation
system.mem_ctrls1.bytesPerActivate::512-639         1094      0.67%     98.69% # Bytes accessed per row activation
system.mem_ctrls1.bytesPerActivate::640-767          670      0.41%     99.10% # Bytes accessed per row activation
system.mem_ctrls1.bytesPerActivate::768-895          447      0.27%     99.37% # Bytes accessed per row activation
system.mem_ctrls1.bytesPerActivate::896-1023          419      0.26%     99.63% # Bytes accessed per row activation
system.mem_ctrls1.bytesPerActivate::1024-1151          611      0.37%    100.00% # Bytes accessed per row activation
system.mem_ctrls1.bytesPerActivate::total       163307                       # Bytes accessed per row activation
system.mem_ctrls1.rdPerTurnAround::samples        11140                       # Reads before turning the bus around for writes
system.mem_ctrls1.rdPerTurnAround::mean     19.413016                       # Reads before turning the bus around for writes
system.mem_ctrls1.rdPerTurnAround::stdev    93.011980                       # Reads before turning the bus around for writes
system.mem_ctrls1.rdPerTurnAround::0-127        10857     97.46%     97.46% # Reads before turning the bus around for writes
system.mem_ctrls1.rdPerTurnAround::128-255          170      1.53%     98.99% # Reads before turning the bus around for writes
system.mem_ctrls1.rdPerTurnAround::256-383           46      0.41%     99.40% # Reads before turning the bus around for writes
system.mem_ctrls1.rdPerTurnAround::384-511           21      0.19%     99.59% # Reads before turning the bus around for writes
system.mem_ctrls1.rdPerTurnAround::512-639            7      0.06%     99.65% # Reads before turning the bus around for writes
system.mem_ctrls1.rdPerTurnAround::640-767            6      0.05%     99.70% # Reads before turning the bus around for writes
system.mem_ctrls1.rdPerTurnAround::768-895            4      0.04%     99.74% # Reads before turning the bus around for writes
system.mem_ctrls1.rdPerTurnAround::896-1023            6      0.05%     99.79% # Reads before turning the bus around for writes
system.mem_ctrls1.rdPerTurnAround::1024-1151            3      0.03%     99.82% # Reads before turning the bus around for writes
system.mem_ctrls1.rdPerTurnAround::1152-1279            4      0.04%     99.86% # Reads before turning the bus around for writes
system.mem_ctrls1.rdPerTurnAround::1280-1407            1      0.01%     99.87% # Reads before turning the bus around for writes
system.mem_ctrls1.rdPerTurnAround::1408-1535            2      0.02%     99.88% # Reads before turning the bus around for writes
system.mem_ctrls1.rdPerTurnAround::1536-1663            2      0.02%     99.90% # Reads before turning the bus around for writes
system.mem_ctrls1.rdPerTurnAround::1664-1791            2      0.02%     99.92% # Reads before turning the bus around for writes
system.mem_ctrls1.rdPerTurnAround::1792-1919            2      0.02%     99.94% # Reads before turning the bus around for writes
system.mem_ctrls1.rdPerTurnAround::1920-2047            1      0.01%     99.95% # Reads before turning the bus around for writes
system.mem_ctrls1.rdPerTurnAround::2048-2175            3      0.03%     99.97% # Reads before turning the bus around for writes
system.mem_ctrls1.rdPerTurnAround::2176-2303            1      0.01%     99.98% # Reads before turning the bus around for writes
system.mem_ctrls1.rdPerTurnAround::2304-2431            1      0.01%     99.99% # Reads before turning the bus around for writes
system.mem_ctrls1.rdPerTurnAround::2816-2943            1      0.01%    100.00% # Reads before turning the bus around for writes
system.mem_ctrls1.rdPerTurnAround::total        11140                       # Reads before turning the bus around for writes
system.mem_ctrls1.wrPerTurnAround::samples        11140                       # Writes before turning the bus around for reads
system.mem_ctrls1.wrPerTurnAround::mean      5.393268                       # Writes before turning the bus around for reads
system.mem_ctrls1.wrPerTurnAround::gmean     5.244153                       # Writes before turning the bus around for reads
system.mem_ctrls1.wrPerTurnAround::stdev     1.788184                       # Writes before turning the bus around for reads
system.mem_ctrls1.wrPerTurnAround::4-7          10671     95.79%     95.79% # Writes before turning the bus around for reads
system.mem_ctrls1.wrPerTurnAround::8-11           149      1.34%     97.13% # Writes before turning the bus around for reads
system.mem_ctrls1.wrPerTurnAround::12-15          116      1.04%     98.17% # Writes before turning the bus around for reads
system.mem_ctrls1.wrPerTurnAround::16-19          204      1.83%    100.00% # Writes before turning the bus around for reads
system.mem_ctrls1.wrPerTurnAround::total        11140                       # Writes before turning the bus around for reads
system.mem_ctrls1.totQLat                  8376776097                       # Total ticks spent queuing
system.mem_ctrls1.totMemAccLat            12432382347                       # Total ticks spent from burst creation until serviced by the DRAM
system.mem_ctrls1.totBusLat                1081495000                       # Total ticks spent in databus transfers
system.mem_ctrls1.avgQLat                    38727.76                       # Average queueing delay per DRAM burst
system.mem_ctrls1.avgBusLat                   5000.00                       # Average bus latency per DRAM burst
system.mem_ctrls1.avgMemAccLat               57477.76                       # Average memory access latency per DRAM burst
system.mem_ctrls1.avgRdBW                      258.08                       # Average DRAM read bandwidth in MiByte/s
system.mem_ctrls1.avgWrBW                       71.69                       # Average achieved write bandwidth in MiByte/s
system.mem_ctrls1.avgRdBWSys                   258.11                       # Average system read bandwidth in MiByte/s
system.mem_ctrls1.avgWrBWSys                    71.69                       # Average system write bandwidth in MiByte/s
system.mem_ctrls1.peakBW                     12800.00                       # Theoretical peak bandwidth in MiByte/s
system.mem_ctrls1.busUtil                        2.58                       # Data bus utilization in percentage
system.mem_ctrls1.busUtilRead                    2.02                       # Data bus utilization in percentage for reads
system.mem_ctrls1.busUtilWrite                   0.56                       # Data bus utilization in percentage for writes
system.mem_ctrls1.avgRdQLen                      1.21                       # Average read queue length when enqueuing
system.mem_ctrls1.avgWrQLen                      2.90                       # Average write queue length when enqueuing
system.mem_ctrls1.readRowHits                   76386                       # Number of row buffer hits during reads
system.mem_ctrls1.writeRowHits                  36677                       # Number of row buffer hits during writes
system.mem_ctrls1.readRowHitRate                35.32                       # Row buffer hit rate for reads
system.mem_ctrls1.writeRowHitRate               61.04                       # Row buffer hit rate for writes
system.mem_ctrls1.avgGap                    194055.88                       # Average gap between requests
system.mem_ctrls1.pageHitRate                   40.91                       # Row buffer hit rate, read and write combined
system.mem_ctrls1.memoryStateTime::IDLE   11214410500                       # Time in different power states
system.mem_ctrls1.memoryStateTime::REF     1790880000                       # Time in different power states
system.mem_ctrls1.memoryStateTime::PRE_PDN            0                       # Time in different power states
system.mem_ctrls1.memoryStateTime::ACT    40626685500                       # Time in different power states
system.mem_ctrls1.memoryStateTime::ACT_PDN            0                       # Time in different power states
system.mem_ctrls1.actEnergy::0              617931720                       # Energy for activate commands per rank (pJ)
system.mem_ctrls1.actEnergy::1              616593600                       # Energy for activate commands per rank (pJ)
system.mem_ctrls1.preEnergy::0              337165125                       # Energy for precharge commands per rank (pJ)
system.mem_ctrls1.preEnergy::1              336435000                       # Energy for precharge commands per rank (pJ)
system.mem_ctrls1.readEnergy::0             850980000                       # Energy for read commands per rank (pJ)
system.mem_ctrls1.readEnergy::1             835902600                       # Energy for read commands per rank (pJ)
system.mem_ctrls1.writeEnergy::0            197685360                       # Energy for write commands per rank (pJ)
system.mem_ctrls1.writeEnergy::1            191639520                       # Energy for write commands per rank (pJ)
system.mem_ctrls1.refreshEnergy::0         3502961280                       # Energy for refresh commands per rank (pJ)
system.mem_ctrls1.refreshEnergy::1         3502961280                       # Energy for refresh commands per rank (pJ)
system.mem_ctrls1.actBackEnergy::0        21183706575                       # Energy for active background per rank (pJ)
system.mem_ctrls1.actBackEnergy::1        20408417370                       # Energy for active background per rank (pJ)
system.mem_ctrls1.preBackEnergy::0        13596971250                       # Energy for precharge background per rank (pJ)
system.mem_ctrls1.preBackEnergy::1        14277049500                       # Energy for precharge background per rank (pJ)
system.mem_ctrls1.totalEnergy::0          40287401310                       # Total energy per rank (pJ)
system.mem_ctrls1.totalEnergy::1          40168998870                       # Total energy per rank (pJ)
system.mem_ctrls1.averagePower::0          751.182855                       # Core power per rank (mW)
system.mem_ctrls1.averagePower::1          748.975170                       # Core power per rank (mW)
system.mem_ctrls2.bytes_read::ruby.dir_cntrl2     13845120                       # Number of bytes read from this memory
system.mem_ctrls2.bytes_read::total          13845120                       # Number of bytes read from this memory
system.mem_ctrls2.bytes_written::ruby.dir_cntrl2      3845952                       # Number of bytes written to this memory
system.mem_ctrls2.bytes_written::total        3845952                       # Number of bytes written to this memory
system.mem_ctrls2.num_reads::ruby.dir_cntrl2       216330                       # Number of read requests responded to by this memory
system.mem_ctrls2.num_reads::total             216330                       # Number of read requests responded to by this memory
system.mem_ctrls2.num_writes::ruby.dir_cntrl2        60093                       # Number of write requests responded to by this memory
system.mem_ctrls2.num_writes::total             60093                       # Number of write requests responded to by this memory
system.mem_ctrls2.bw_read::ruby.dir_cntrl2    258114989                       # Total read bandwidth from this memory (bytes/s)
system.mem_ctrls2.bw_read::total            258114989                       # Total read bandwidth from this memory (bytes/s)
system.mem_ctrls2.bw_write::ruby.dir_cntrl2     71700199                       # Write bandwidth from this memory (bytes/s)
system.mem_ctrls2.bw_write::total            71700199                       # Write bandwidth from this memory (bytes/s)
system.mem_ctrls2.bw_total::ruby.dir_cntrl2    329815188                       # Total bandwidth to/from this memory (bytes/s)
system.mem_ctrls2.bw_total::total           329815188                       # Total bandwidth to/from this memory (bytes/s)
system.mem_ctrls2.readReqs                     216330                       # Number of read requests accepted
system.mem_ctrls2.writeReqs                     60093                       # Number of write requests accepted
system.mem_ctrls2.readBursts                   216330                       # Number of DRAM read bursts, including those serviced by the write queue
system.mem_ctrls2.writeBursts                   60093                       # Number of DRAM write bursts, including those merged in the write queue
system.mem_ctrls2.bytesReadDRAM              13844352                       # Total number of bytes read from DRAM
system.mem_ctrls2.bytesReadWrQ                    768                       # Total number of bytes read from write queue
system.mem_ctrls2.bytesWritten                3845696                       # Total number of bytes written to DRAM
system.mem_ctrls2.bytesReadSys               13845120                       # Total read bytes from the system interface side
system.mem_ctrls2.bytesWrittenSys             3845952                       # Total written bytes from the system interface side
system.mem_ctrls2.servicedByWrQ                    12                       # Number of DRAM read bursts serviced by the write queue
system.mem_ctrls2.mergedWrBursts                    0                       # Number of DRAM write bursts merged with an existing one
system.mem_ctrls2.neitherReadNorWriteReqs            0                       # Number of requests that are neither read nor write
system.mem_ctrls2.perBankRdBursts::0            13291                       # Per bank write bursts
system.mem_ctrls2.perBankRdBursts::1            13814                       # Per bank write bursts
system.mem_ctrls2.perBankRdBursts::2            13484                       # Per bank write bursts
system.mem_ctrls2.perBankRdBursts::3            13918                       # Per bank write bursts
system.mem_ctrls2.perBankRdBursts::4            13540                       # Per bank write bursts
system.mem_ctrls2.perBankRdBursts::5            14114                       # Per bank write bursts
system.mem_ctrls2.perBankRdBursts::6            13486                       # Per bank write bursts
system.mem_ctrls2.perBankRdBursts::7            13488                       # Per bank write bursts
system.mem_ctrls2.perBankRdBursts::8            13375                       # Per bank write bursts
system.mem_ctrls2.perBankRdBursts::9            13705                       # Per bank write bursts
system.mem_ctrls2.perBankRdBursts::10           13423                       # Per bank write bursts
system.mem_ctrls2.perBankRdBursts::11           13699                       # Per bank write bursts
system.mem_ctrls2.perBankRdBursts::12           13205                       # Per bank write bursts
system.mem_ctrls2.perBankRdBursts::13           13064                       # Per bank write bursts
system.mem_ctrls2.perBankRdBursts::14           13297                       # Per bank write bursts
system.mem_ctrls2.perBankRdBursts::15           13415                       # Per bank write bursts
system.mem_ctrls2.perBankWrBursts::0             3687                       # Per bank write bursts
system.mem_ctrls2.perBankWrBursts::1             3775                       # Per bank write bursts
system.mem_ctrls2.perBankWrBursts::2             3754                       # Per bank write bursts
system.mem_ctrls2.perBankWrBursts::3             4004                       # Per bank write bursts
system.mem_ctrls2.perBankWrBursts::4             3778                       # Per bank write bursts
system.mem_ctrls2.perBankWrBursts::5             3916                       # Per bank write bursts
system.mem_ctrls2.perBankWrBursts::6             3812                       # Per bank write bursts
system.mem_ctrls2.perBankWrBursts::7             3779                       # Per bank write bursts
system.mem_ctrls2.perBankWrBursts::8             3676                       # Per bank write bursts
system.mem_ctrls2.perBankWrBursts::9             3916                       # Per bank write bursts
system.mem_ctrls2.perBankWrBursts::10            3677                       # Per bank write bursts
system.mem_ctrls2.perBankWrBursts::11            3609                       # Per bank write bursts
system.mem_ctrls2.perBankWrBursts::12            3575                       # Per bank write bursts
system.mem_ctrls2.perBankWrBursts::13            3602                       # Per bank write bursts
system.mem_ctrls2.perBankWrBursts::14            3809                       # Per bank write bursts
system.mem_ctrls2.perBankWrBursts::15            3720                       # Per bank write bursts
system.mem_ctrls2.numRdRetry                     5003                       # Number of times read queue was full causing retry
system.mem_ctrls2.numWrRetry                     1145                       # Number of times write queue was full causing retry
system.mem_ctrls2.totGap                  53638631500                       # Total gap between requests
system.mem_ctrls2.readPktSize::0                    0                       # Read request sizes (log2)
system.mem_ctrls2.readPktSize::1                    0                       # Read request sizes (log2)
system.mem_ctrls2.readPktSize::2                    0                       # Read request sizes (log2)
system.mem_ctrls2.readPktSize::3                    0                       # Read request sizes (log2)
system.mem_ctrls2.readPktSize::4                    0                       # Read request sizes (log2)
system.mem_ctrls2.readPktSize::5                    0                       # Read request sizes (log2)
system.mem_ctrls2.readPktSize::6               216330                       # Read request sizes (log2)
system.mem_ctrls2.writePktSize::0                   0                       # Write request sizes (log2)
system.mem_ctrls2.writePktSize::1                   0                       # Write request sizes (log2)
system.mem_ctrls2.writePktSize::2                   0                       # Write request sizes (log2)
system.mem_ctrls2.writePktSize::3                   0                       # Write request sizes (log2)
system.mem_ctrls2.writePktSize::4                   0                       # Write request sizes (log2)
system.mem_ctrls2.writePktSize::5                   0                       # Write request sizes (log2)
system.mem_ctrls2.writePktSize::6               60093                       # Write request sizes (log2)
system.mem_ctrls2.rdQLenPdf::0                  77232                       # What read queue length does an incoming req see
system.mem_ctrls2.rdQLenPdf::1                  29799                       # What read queue length does an incoming req see
system.mem_ctrls2.rdQLenPdf::2                  33964                       # What read queue length does an incoming req see
system.mem_ctrls2.rdQLenPdf::3                  28804                       # What read queue length does an incoming req see
system.mem_ctrls2.rdQLenPdf::4                  18736                       # What read queue length does an incoming req see
system.mem_ctrls2.rdQLenPdf::5                  10209                       # What read queue length does an incoming req see
system.mem_ctrls2.rdQLenPdf::6                   4996                       # What read queue length does an incoming req see
system.mem_ctrls2.rdQLenPdf::7                   2361                       # What read queue length does an incoming req see
system.mem_ctrls2.rdQLenPdf::8                   1170                       # What read queue length does an incoming req see
system.mem_ctrls2.rdQLenPdf::9                    647                       # What read queue length does an incoming req see
system.mem_ctrls2.rdQLenPdf::10                   366                       # What read queue length does an incoming req see
system.mem_ctrls2.rdQLenPdf::11                   292                       # What read queue length does an incoming req see
system.mem_ctrls2.rdQLenPdf::12                   225                       # What read queue length does an incoming req see
system.mem_ctrls2.rdQLenPdf::13                   199                       # What read queue length does an incoming req see
system.mem_ctrls2.rdQLenPdf::14                   196                       # What read queue length does an incoming req see
system.mem_ctrls2.rdQLenPdf::15                   181                       # What read queue length does an incoming req see
system.mem_ctrls2.rdQLenPdf::16                   150                       # What read queue length does an incoming req see
system.mem_ctrls2.rdQLenPdf::17                   137                       # What read queue length does an incoming req see
system.mem_ctrls2.rdQLenPdf::18                   168                       # What read queue length does an incoming req see
system.mem_ctrls2.rdQLenPdf::19                   134                       # What read queue length does an incoming req see
system.mem_ctrls2.rdQLenPdf::20                   124                       # What read queue length does an incoming req see
system.mem_ctrls2.rdQLenPdf::21                   101                       # What read queue length does an incoming req see
system.mem_ctrls2.rdQLenPdf::22                    93                       # What read queue length does an incoming req see
system.mem_ctrls2.rdQLenPdf::23                   100                       # What read queue length does an incoming req see
system.mem_ctrls2.rdQLenPdf::24                   100                       # What read queue length does an incoming req see
system.mem_ctrls2.rdQLenPdf::25                   105                       # What read queue length does an incoming req see
system.mem_ctrls2.rdQLenPdf::26                    99                       # What read queue length does an incoming req see
system.mem_ctrls2.rdQLenPdf::27                    73                       # What read queue length does an incoming req see
system.mem_ctrls2.rdQLenPdf::28                    75                       # What read queue length does an incoming req see
system.mem_ctrls2.rdQLenPdf::29                    92                       # What read queue length does an incoming req see
system.mem_ctrls2.rdQLenPdf::30                   104                       # What read queue length does an incoming req see
system.mem_ctrls2.rdQLenPdf::31                  5286                       # What read queue length does an incoming req see
system.mem_ctrls2.wrQLenPdf::0                  11028                       # What write queue length does an incoming req see
system.mem_ctrls2.wrQLenPdf::1                  11314                       # What write queue length does an incoming req see
system.mem_ctrls2.wrQLenPdf::2                  11339                       # What write queue length does an incoming req see
system.mem_ctrls2.wrQLenPdf::3                  11333                       # What write queue length does an incoming req see
system.mem_ctrls2.wrQLenPdf::4                  11345                       # What write queue length does an incoming req see
system.mem_ctrls2.wrQLenPdf::5                    737                       # What write queue length does an incoming req see
system.mem_ctrls2.wrQLenPdf::6                    846                       # What write queue length does an incoming req see
system.mem_ctrls2.wrQLenPdf::7                   2151                       # What write queue length does an incoming req see
system.mem_ctrls2.bytesPerActivate::samples       163358                       # Bytes accessed per row activation
system.mem_ctrls2.bytesPerActivate::mean   108.281835                       # Bytes accessed per row activation
system.mem_ctrls2.bytesPerActivate::gmean    84.144170                       # Bytes accessed per row activation
system.mem_ctrls2.bytesPerActivate::stdev   119.700155                       # Bytes accessed per row activation
system.mem_ctrls2.bytesPerActivate::0-127       128461     78.64%     78.64% # Bytes accessed per row activation
system.mem_ctrls2.bytesPerActivate::128-255        16926     10.36%     89.00% # Bytes accessed per row activation
system.mem_ctrls2.bytesPerActivate::256-383        13067      8.00%     97.00% # Bytes accessed per row activation
system.mem_ctrls2.bytesPerActivate::384-511         1658      1.01%     98.01% # Bytes accessed per row activation
system.mem_ctrls2.bytesPerActivate::512-639         1106      0.68%     98.69% # Bytes accessed per row activation
system.mem_ctrls2.bytesPerActivate::640-767          682      0.42%     99.11% # Bytes accessed per row activation
system.mem_ctrls2.bytesPerActivate::768-895          429      0.26%     99.37% # Bytes accessed per row activation
system.mem_ctrls2.bytesPerActivate::896-1023          420      0.26%     99.63% # Bytes accessed per row activation
system.mem_ctrls2.bytesPerActivate::1024-1151          609      0.37%    100.00% # Bytes accessed per row activation
system.mem_ctrls2.bytesPerActivate::total       163358                       # Bytes accessed per row activation
system.mem_ctrls2.rdPerTurnAround::samples        11146                       # Reads before turning the bus around for writes
system.mem_ctrls2.rdPerTurnAround::mean     19.396824                       # Reads before turning the bus around for writes
system.mem_ctrls2.rdPerTurnAround::stdev    93.716654                       # Reads before turning the bus around for writes
system.mem_ctrls2.rdPerTurnAround::0-127        10861     97.44%     97.44% # Reads before turning the bus around for writes
system.mem_ctrls2.rdPerTurnAround::128-255          168      1.51%     98.95% # Reads before turning the bus around for writes
system.mem_ctrls2.rdPerTurnAround::256-383           51      0.46%     99.41% # Reads before turning the bus around for writes
system.mem_ctrls2.rdPerTurnAround::384-511           17      0.15%     99.56% # Reads before turning the bus around for writes
system.mem_ctrls2.rdPerTurnAround::512-639            9      0.08%     99.64% # Reads before turning the bus around for writes
system.mem_ctrls2.rdPerTurnAround::640-767            7      0.06%     99.70% # Reads before turning the bus around for writes
system.mem_ctrls2.rdPerTurnAround::768-895            5      0.04%     99.75% # Reads before turning the bus around for writes
system.mem_ctrls2.rdPerTurnAround::896-1023            7      0.06%     99.81% # Reads before turning the bus around for writes
system.mem_ctrls2.rdPerTurnAround::1024-1151            2      0.02%     99.83% # Reads before turning the bus around for writes
system.mem_ctrls2.rdPerTurnAround::1152-1279            2      0.02%     99.85% # Reads before turning the bus around for writes
system.mem_ctrls2.rdPerTurnAround::1280-1407            2      0.02%     99.87% # Reads before turning the bus around for writes
system.mem_ctrls2.rdPerTurnAround::1536-1663            4      0.04%     99.90% # Reads before turning the bus around for writes
system.mem_ctrls2.rdPerTurnAround::1664-1791            2      0.02%     99.92% # Reads before turning the bus around for writes
system.mem_ctrls2.rdPerTurnAround::1792-1919            1      0.01%     99.93% # Reads before turning the bus around for writes
system.mem_ctrls2.rdPerTurnAround::1920-2047            2      0.02%     99.95% # Reads before turning the bus around for writes
system.mem_ctrls2.rdPerTurnAround::2048-2175            2      0.02%     99.96% # Reads before turning the bus around for writes
system.mem_ctrls2.rdPerTurnAround::2176-2303            3      0.03%     99.99% # Reads before turning the bus around for writes
system.mem_ctrls2.rdPerTurnAround::2816-2943            1      0.01%    100.00% # Reads before turning the bus around for writes
system.mem_ctrls2.rdPerTurnAround::total        11146                       # Reads before turning the bus around for writes
system.mem_ctrls2.wrPerTurnAround::samples        11146                       # Writes before turning the bus around for reads
system.mem_ctrls2.wrPerTurnAround::mean      5.391082                       # Writes before turning the bus around for reads
system.mem_ctrls2.wrPerTurnAround::gmean     5.241682                       # Writes before turning the bus around for reads
system.mem_ctrls2.wrPerTurnAround::stdev     1.788360                       # Writes before turning the bus around for reads
system.mem_ctrls2.wrPerTurnAround::4-7          10673     95.76%     95.76% # Writes before turning the bus around for reads
system.mem_ctrls2.wrPerTurnAround::8-11           144      1.29%     97.05% # Writes before turning the bus around for reads
system.mem_ctrls2.wrPerTurnAround::12-15          140      1.26%     98.30% # Writes before turning the bus around for reads
system.mem_ctrls2.wrPerTurnAround::16-19          189      1.70%    100.00% # Writes before turning the bus around for reads
system.mem_ctrls2.wrPerTurnAround::total        11146                       # Writes before turning the bus around for reads
system.mem_ctrls2.totQLat                  8308951478                       # Total ticks spent queuing
system.mem_ctrls2.totMemAccLat            12364913978                       # Total ticks spent from burst creation until serviced by the DRAM
system.mem_ctrls2.totBusLat                1081590000                       # Total ticks spent in databus transfers
system.mem_ctrls2.avgQLat                    38410.82                       # Average queueing delay per DRAM burst
system.mem_ctrls2.avgBusLat                   5000.00                       # Average bus latency per DRAM burst
system.mem_ctrls2.avgMemAccLat               57160.82                       # Average memory access latency per DRAM burst
system.mem_ctrls2.avgRdBW                      258.10                       # Average DRAM read bandwidth in MiByte/s
system.mem_ctrls2.avgWrBW                       71.70                       # Average achieved write bandwidth in MiByte/s
system.mem_ctrls2.avgRdBWSys                   258.11                       # Average system read bandwidth in MiByte/s
system.mem_ctrls2.avgWrBWSys                    71.70                       # Average system write bandwidth in MiByte/s
system.mem_ctrls2.peakBW                     12800.00                       # Theoretical peak bandwidth in MiByte/s
system.mem_ctrls2.busUtil                        2.58                       # Data bus utilization in percentage
system.mem_ctrls2.busUtilRead                    2.02                       # Data bus utilization in percentage for reads
system.mem_ctrls2.busUtilWrite                   0.56                       # Data bus utilization in percentage for writes
system.mem_ctrls2.avgRdQLen                      1.21                       # Average read queue length when enqueuing
system.mem_ctrls2.avgWrQLen                      2.98                       # Average write queue length when enqueuing
system.mem_ctrls2.readRowHits                   76401                       # Number of row buffer hits during reads
system.mem_ctrls2.writeRowHits                  36637                       # Number of row buffer hits during writes
system.mem_ctrls2.readRowHitRate                35.32                       # Row buffer hit rate for reads
system.mem_ctrls2.writeRowHitRate               60.97                       # Row buffer hit rate for writes
system.mem_ctrls2.avgGap                    194045.47                       # Average gap between requests
system.mem_ctrls2.pageHitRate                   40.89                       # Row buffer hit rate, read and write combined
system.mem_ctrls2.memoryStateTime::IDLE   11116174750                       # Time in different power states
system.mem_ctrls2.memoryStateTime::REF     1790880000                       # Time in different power states
system.mem_ctrls2.memoryStateTime::PRE_PDN            0                       # Time in different power states
system.mem_ctrls2.memoryStateTime::ACT    40725039750                       # Time in different power states
system.mem_ctrls2.memoryStateTime::ACT_PDN            0                       # Time in different power states
system.mem_ctrls2.actEnergy::0              618680160                       # Energy for activate commands per rank (pJ)
system.mem_ctrls2.actEnergy::1              616253400                       # Energy for activate commands per rank (pJ)
system.mem_ctrls2.preEnergy::0              337573500                       # Energy for precharge commands per rank (pJ)
system.mem_ctrls2.preEnergy::1              336249375                       # Energy for precharge commands per rank (pJ)
system.mem_ctrls2.readEnergy::0             851081400                       # Energy for read commands per rank (pJ)
system.mem_ctrls2.readEnergy::1             835957200                       # Energy for read commands per rank (pJ)
system.mem_ctrls2.writeEnergy::0            197672400                       # Energy for write commands per rank (pJ)
system.mem_ctrls2.writeEnergy::1            191704320                       # Energy for write commands per rank (pJ)
system.mem_ctrls2.refreshEnergy::0         3502961280                       # Energy for refresh commands per rank (pJ)
system.mem_ctrls2.refreshEnergy::1         3502961280                       # Energy for refresh commands per rank (pJ)
system.mem_ctrls2.actBackEnergy::0        21157611975                       # Energy for active background per rank (pJ)
system.mem_ctrls2.actBackEnergy::1        20565214110                       # Energy for active background per rank (pJ)
system.mem_ctrls2.preBackEnergy::0        13619871750                       # Energy for precharge background per rank (pJ)
system.mem_ctrls2.preBackEnergy::1        14139519000                       # Energy for precharge background per rank (pJ)
system.mem_ctrls2.totalEnergy::0          40285452465                       # Total energy per rank (pJ)
system.mem_ctrls2.totalEnergy::1          40187858685                       # Total energy per rank (pJ)
system.mem_ctrls2.averagePower::0          751.146272                       # Core power per rank (mW)
system.mem_ctrls2.averagePower::1          749.326578                       # Core power per rank (mW)
system.mem_ctrls3.bytes_read::ruby.dir_cntrl3     13844928                       # Number of bytes read from this memory
system.mem_ctrls3.bytes_read::total          13844928                       # Number of bytes read from this memory
system.mem_ctrls3.bytes_written::ruby.dir_cntrl3      3843136                       # Number of bytes written to this memory
system.mem_ctrls3.bytes_written::total        3843136                       # Number of bytes written to this memory
system.mem_ctrls3.num_reads::ruby.dir_cntrl3       216327                       # Number of read requests responded to by this memory
system.mem_ctrls3.num_reads::total             216327                       # Number of read requests responded to by this memory
system.mem_ctrls3.num_writes::ruby.dir_cntrl3        60049                       # Number of write requests responded to by this memory
system.mem_ctrls3.num_writes::total             60049                       # Number of write requests responded to by this memory
system.mem_ctrls3.bw_read::ruby.dir_cntrl3    258111410                       # Total read bandwidth from this memory (bytes/s)
system.mem_ctrls3.bw_read::total            258111410                       # Total read bandwidth from this memory (bytes/s)
system.mem_ctrls3.bw_write::ruby.dir_cntrl3     71647700                       # Write bandwidth from this memory (bytes/s)
system.mem_ctrls3.bw_write::total            71647700                       # Write bandwidth from this memory (bytes/s)
system.mem_ctrls3.bw_total::ruby.dir_cntrl3    329759110                       # Total bandwidth to/from this memory (bytes/s)
system.mem_ctrls3.bw_total::total           329759110                       # Total bandwidth to/from this memory (bytes/s)
system.mem_ctrls3.readReqs                     216328                       # Number of read requests accepted
system.mem_ctrls3.writeReqs                     60049                       # Number of write requests accepted
system.mem_ctrls3.readBursts                   216328                       # Number of DRAM read bursts, including those serviced by the write queue
system.mem_ctrls3.writeBursts                   60049                       # Number of DRAM write bursts, including those merged in the write queue
system.mem_ctrls3.bytesReadDRAM              13844224                       # Total number of bytes read from DRAM
system.mem_ctrls3.bytesReadWrQ                    768                       # Total number of bytes read from write queue
system.mem_ctrls3.bytesWritten                3843136                       # Total number of bytes written to DRAM
system.mem_ctrls3.bytesReadSys               13844992                       # Total read bytes from the system interface side
system.mem_ctrls3.bytesWrittenSys             3843136                       # Total written bytes from the system interface side
system.mem_ctrls3.servicedByWrQ                    12                       # Number of DRAM read bursts serviced by the write queue
system.mem_ctrls3.mergedWrBursts                    0                       # Number of DRAM write bursts merged with an existing one
system.mem_ctrls3.neitherReadNorWriteReqs            0                       # Number of requests that are neither read nor write
system.mem_ctrls3.perBankRdBursts::0            13265                       # Per bank write bursts
system.mem_ctrls3.perBankRdBursts::1            13794                       # Per bank write bursts
system.mem_ctrls3.perBankRdBursts::2            13434                       # Per bank write bursts
system.mem_ctrls3.perBankRdBursts::3            13898                       # Per bank write bursts
system.mem_ctrls3.perBankRdBursts::4            13488                       # Per bank write bursts
system.mem_ctrls3.perBankRdBursts::5            14301                       # Per bank write bursts
system.mem_ctrls3.perBankRdBursts::6            13507                       # Per bank write bursts
system.mem_ctrls3.perBankRdBursts::7            13481                       # Per bank write bursts
system.mem_ctrls3.perBankRdBursts::8            13376                       # Per bank write bursts
system.mem_ctrls3.perBankRdBursts::9            13701                       # Per bank write bursts
system.mem_ctrls3.perBankRdBursts::10           13452                       # Per bank write bursts
system.mem_ctrls3.perBankRdBursts::11           13653                       # Per bank write bursts
system.mem_ctrls3.perBankRdBursts::12           13200                       # Per bank write bursts
system.mem_ctrls3.perBankRdBursts::13           13055                       # Per bank write bursts
system.mem_ctrls3.perBankRdBursts::14           13311                       # Per bank write bursts
system.mem_ctrls3.perBankRdBursts::15           13400                       # Per bank write bursts
system.mem_ctrls3.perBankWrBursts::0             3692                       # Per bank write bursts
system.mem_ctrls3.perBankWrBursts::1             3769                       # Per bank write bursts
system.mem_ctrls3.perBankWrBursts::2             3750                       # Per bank write bursts
system.mem_ctrls3.perBankWrBursts::3             3987                       # Per bank write bursts
system.mem_ctrls3.perBankWrBursts::4             3776                       # Per bank write bursts
system.mem_ctrls3.perBankWrBursts::5             3911                       # Per bank write bursts
system.mem_ctrls3.perBankWrBursts::6             3808                       # Per bank write bursts
system.mem_ctrls3.perBankWrBursts::7             3767                       # Per bank write bursts
system.mem_ctrls3.perBankWrBursts::8             3673                       # Per bank write bursts
system.mem_ctrls3.perBankWrBursts::9             3916                       # Per bank write bursts
[...]
system.ruby.L2Cache_Controller.IM.Mem_Data::total       190202                      
system.ruby.L2Cache_Controller.SS_MB.Exclusive_Unblock |         200     80.32%     80.32% |           6      2.41%     82.73% |           3      1.20%     83.94% |           6      2.41%     86.35% |           0      0.00%     86.35% |           1      0.40%     86.75% |           1      0.40%     87.15% |           0      0.00%     87.15% |           0      0.00%     87.15% |           1      0.40%     87.55% |           0      0.00%     87.55% |           0      0.00%     87.55% |           5      2.01%     89.56% |           0      0.00%     89.56% |           2      0.80%     90.36% |           1      0.40%     90.76% |           0      0.00%     90.76% |           0      0.00%     90.76% |          10      4.02%     94.78% |           2      0.80%     95.58% |           0      0.00%     95.58% |           0      0.00%     95.58% |           0      0.00%     95.58% |           0      0.00%     95.58% |           1      0.40%     95.98% |           0      0.00%     95.98% |           2      0.80%     96.79% |           1      0.40%     97.19% |           4      1.61%     98.80% |           1      0.40%     99.20% |           1      0.40%     99.60% |           1      0.40%    100.00%
system.ruby.L2Cache_Controller.SS_MB.Exclusive_Unblock::total          249                      
system.ruby.L2Cache_Controller.MT_MB.L1_GETS |           1      2.78%      2.78% |           0      0.00%      2.78% |           1      2.78%      5.56% |           0      0.00%      5.56% |           0      0.00%      5.56% |           0      0.00%      5.56% |           0      0.00%      5.56% |           0      0.00%      5.56% |           0      0.00%      5.56% |           0      0.00%      5.56% |           0      0.00%      5.56% |           0      0.00%      5.56% |           0      0.00%      5.56% |           0      0.00%      5.56% |           0      0.00%      5.56% |           0      0.00%      5.56% |           0      0.00%      5.56% |          15     41.67%     47.22% |          19     52.78%    100.00% |           0      0.00%    100.00% |           0      0.00%    100.00% |           0      0.00%    100.00% |           0      0.00%    100.00% |           0      0.00%    100.00% |           0      0.00%    100.00% |           0      0.00%    100.00% |           0      0.00%    100.00% |           0      0.00%    100.00% |           0      0.00%    100.00% |           0      0.00%    100.00% |           0      0.00%    100.00% |           0      0.00%    100.00%
system.ruby.L2Cache_Controller.MT_MB.L1_GETS::total           36                      
system.ruby.L2Cache_Controller.MT_MB.Exclusive_Unblock |       77581      7.10%      7.10% |       33347      3.05%     10.15% |       32629      2.98%     13.13% |       32837      3.00%     16.13% |       33063      3.02%     19.16% |       31984      2.93%     22.08% |       31919      2.92%     25.00% |       31667      2.90%     27.90% |       33892      3.10%     31.00% |       32299      2.95%     33.95% |       34240      3.13%     37.08% |       33101      3.03%     40.11% |       32635      2.98%     43.09% |       31688      2.90%     45.99% |       31718      2.90%     48.89% |       31649      2.89%     51.79% |       34230      3.13%     54.92% |       32063      2.93%     57.85% |       32910      3.01%     60.86% |       32519      2.97%     63.83% |       32975      3.02%     66.85% |       32420      2.97%     69.82% |       32957      3.01%     72.83% |       31979      2.92%     75.75% |       33598      3.07%     78.83% |       32282      2.95%     81.78% |       32786      3.00%     84.78% |       31788      2.91%     87.68% |       33106      3.03%     90.71% |       31849      2.91%     93.63% |       34219      3.13%     96.76% |       35480      3.24%    100.00%
system.ruby.L2Cache_Controller.MT_MB.Exclusive_Unblock::total      1093410                      
system.ruby.L2Cache_Controller.MT_IIB.L1_GETS |           0      0.00%      0.00% |           5      5.62%      5.62% |           0      0.00%      5.62% |           0      0.00%      5.62% |           0      0.00%      5.62% |           0      0.00%      5.62% |           0      0.00%      5.62% |           0      0.00%      5.62% |           0      0.00%      5.62% |           0      0.00%      5.62% |           0      0.00%      5.62% |           0      0.00%      5.62% |           0      0.00%      5.62% |           0      0.00%      5.62% |           0      0.00%      5.62% |           0      0.00%      5.62% |           0      0.00%      5.62% |          29     32.58%     38.20% |          28     31.46%     69.66% |          27     30.34%    100.00% |           0      0.00%    100.00% |           0      0.00%    100.00% |           0      0.00%    100.00% |           0      0.00%    100.00% |           0      0.00%    100.00% |           0      0.00%    100.00% |           0      0.00%    100.00% |           0      0.00%    100.00% |           0      0.00%    100.00% |           0      0.00%    100.00% |           0      0.00%    100.00% |           0      0.00%    100.00%
system.ruby.L2Cache_Controller.MT_IIB.L1_GETS::total           89                      
system.ruby.L2Cache_Controller.MT_IIB.WB_Data |         241      6.08%      6.08% |         122      3.08%      9.15% |         120      3.03%     12.18% |         116      2.92%     15.10% |         120      3.03%     18.13% |         120      3.03%     21.15% |         120      3.03%     24.18% |         120      3.03%     27.21% |         120      3.03%     30.23% |         120      3.03%     33.26% |         120      3.03%     36.28% |         118      2.98%     39.26% |         124      3.13%     42.39% |         120      3.03%     45.41% |         120      3.03%     48.44% |         120      3.03%     51.46% |         120      3.03%     54.49% |         120      3.03%     57.51% |         121      3.05%     60.56% |         121      3.05%     63.62% |         120      3.03%     66.64% |         120      3.03%     69.67% |         122      3.08%     72.74% |         120      3.03%     75.77% |         120      3.03%     78.79% |         120      3.03%     81.82% |         120      3.03%     84.85% |         120      3.03%     87.87% |         121      3.05%     90.92% |         120      3.03%     93.95% |         120      3.03%     96.97% |         120      3.03%    100.00%
system.ruby.L2Cache_Controller.MT_IIB.WB_Data::total         3966                      
system.ruby.L2Cache_Controller.MT_IIB.WB_Data_clean |         580     96.83%     96.83% |           4      0.67%     97.50% |           3      0.50%     98.00% |           2      0.33%     98.33% |           0      0.00%     98.33% |           0      0.00%     98.33% |           0      0.00%     98.33% |           0      0.00%     98.33% |           0      0.00%     98.33% |           0      0.00%     98.33% |           0      0.00%     98.33% |           0      0.00%     98.33% |           0      0.00%     98.33% |           0      0.00%     98.33% |           1      0.17%     98.50% |           0      0.00%     98.50% |           1      0.17%     98.66% |           4      0.67%     99.33% |           2      0.33%     99.67% |           1      0.17%     99.83% |           0      0.00%     99.83% |           0      0.00%     99.83% |           0      0.00%     99.83% |           0      0.00%     99.83% |           1      0.17%    100.00% |           0      0.00%    100.00% |           0      0.00%    100.00% |           0      0.00%    100.00% |           0      0.00%    100.00% |           0      0.00%    100.00% |           0      0.00%    100.00% |           0      0.00%    100.00%
system.ruby.L2Cache_Controller.MT_IIB.WB_Data_clean::total          599                      
system.ruby.L2Cache_Controller.MT_IIB.Unblock |           3     27.27%     27.27% |           0      0.00%     27.27% |           0      0.00%     27.27% |           4     36.36%     63.64% |           0      0.00%     63.64% |           0      0.00%     63.64% |           0      0.00%     63.64% |           0      0.00%     63.64% |           0      0.00%     63.64% |           0      0.00%     63.64% |           0      0.00%     63.64% |           2     18.18%     81.82% |           0      0.00%     81.82% |           0      0.00%     81.82% |           0      0.00%     81.82% |           0      0.00%     81.82% |           0      0.00%     81.82% |           0      0.00%     81.82% |           0      0.00%     81.82% |           0      0.00%     81.82% |           0      0.00%     81.82% |           0      0.00%     81.82% |           0      0.00%     81.82% |           0      0.00%     81.82% |           0      0.00%     81.82% |           1      9.09%     90.91% |           0      0.00%     90.91% |           0      0.00%     90.91% |           1      9.09%    100.00% |           0      0.00%    100.00% |           0      0.00%    100.00% |           0      0.00%    100.00%
system.ruby.L2Cache_Controller.MT_IIB.Unblock::total           11                      
system.ruby.L2Cache_Controller.MT_IB.WB_Data |           1     11.11%     11.11% |           0      0.00%     11.11% |           0      0.00%     11.11% |           4     44.44%     55.56% |           0      0.00%     55.56% |           0      0.00%     55.56% |           0      0.00%     55.56% |           0      0.00%     55.56% |           0      0.00%     55.56% |           0      0.00%     55.56% |           0      0.00%     55.56% |           2     22.22%     77.78% |           0      0.00%     77.78% |           0      0.00%     77.78% |           0      0.00%     77.78% |           0      0.00%     77.78% |           0      0.00%     77.78% |           0      0.00%     77.78% |           0      0.00%     77.78% |           0      0.00%     77.78% |           0      0.00%     77.78% |           0      0.00%     77.78% |           0      0.00%     77.78% |           0      0.00%     77.78% |           0      0.00%     77.78% |           1     11.11%     88.89% |           0      0.00%     88.89% |           0      0.00%     88.89% |           1     11.11%    100.00% |           0      0.00%    100.00% |           0      0.00%    100.00% |           0      0.00%    100.00%
system.ruby.L2Cache_Controller.MT_IB.WB_Data::total            9                      
system.ruby.L2Cache_Controller.MT_IB.WB_Data_clean |           2    100.00%    100.00% |           0      0.00%    100.00% |           0      0.00%    100.00% |           0      0.00%    100.00% |           0      0.00%    100.00% |           0      0.00%    100.00% |           0      0.00%    100.00% |           0      0.00%    100.00% |           0      0.00%    100.00% |           0      0.00%    100.00% |           0      0.00%    100.00% |           0      0.00%    100.00% |           0      0.00%    100.00% |           0      0.00%    100.00% |           0      0.00%    100.00% |           0      0.00%    100.00% |           0      0.00%    100.00% |           0      0.00%    100.00% |           0      0.00%    100.00% |           0      0.00%    100.00% |           0      0.00%    100.00% |           0      0.00%    100.00% |           0      0.00%    100.00% |           0      0.00%    100.00% |           0      0.00%    100.00% |           0      0.00%    100.00% |           0      0.00%    100.00% |           0      0.00%    100.00% |           0      0.00%    100.00% |           0      0.00%    100.00% |           0      0.00%    100.00% |           0      0.00%    100.00%
system.ruby.L2Cache_Controller.MT_IB.WB_Data_clean::total            2                      
system.ruby.L2Cache_Controller.MT_SB.L1_GETS |           0      0.00%      0.00% |           3     75.00%     75.00% |           0      0.00%     75.00% |           0      0.00%     75.00% |           0      0.00%     75.00% |           0      0.00%     75.00% |           0      0.00%     75.00% |           0      0.00%     75.00% |           0      0.00%     75.00% |           0      0.00%     75.00% |           0      0.00%     75.00% |           0      0.00%     75.00% |           0      0.00%     75.00% |           0      0.00%     75.00% |           0      0.00%     75.00% |           0      0.00%     75.00% |           0      0.00%     75.00% |           0      0.00%     75.00% |           0      0.00%     75.00% |           1     25.00%    100.00% |           0      0.00%    100.00% |           0      0.00%    100.00% |           0      0.00%    100.00% |           0      0.00%    100.00% |           0      0.00%    100.00% |           0      0.00%    100.00% |           0      0.00%    100.00% |           0      0.00%    100.00% |           0      0.00%    100.00% |           0      0.00%    100.00% |           0      0.00%    100.00% |           0      0.00%    100.00%
system.ruby.L2Cache_Controller.MT_SB.L1_GETS::total            4                      
system.ruby.L2Cache_Controller.MT_SB.Unblock |         821     17.98%     17.98% |         126      2.76%     20.74% |         123      2.69%     23.44% |         118      2.58%     26.02% |         120      2.63%     28.65% |         120      2.63%     31.28% |         120      2.63%     33.91% |         120      2.63%     36.54% |         120      2.63%     39.17% |         120      2.63%     41.80% |         120      2.63%     44.42% |         118      2.58%     47.01% |         124      2.72%     49.73% |         120      2.63%     52.35% |         121      2.65%     55.01% |         120      2.63%     57.63% |         121      2.65%     60.28% |         124      2.72%     63.00% |         123      2.69%     65.70% |         122      2.67%     68.37% |         120      2.63%     71.00% |         120      2.63%     73.63% |         122      2.67%     76.30% |         120      2.63%     78.93% |         121      2.65%     81.58% |         120      2.63%     84.21% |         120      2.63%     86.83% |         120      2.63%     89.46% |         121      2.65%     92.11% |         120      2.63%     94.74% |         120      2.63%     97.37% |         120      2.63%    100.00%
system.ruby.L2Cache_Controller.MT_SB.Unblock::total         4565                      
system.ruby.SimicsNetworkPortInterface_Controller.MessageSend |       74201      4.38%      4.38% |      847060     50.00%     54.38% |       33797      1.99%     56.37% |       28545      1.68%     58.06% |       24519      1.45%     59.51% |       26321      1.55%     61.06% |       34498      2.04%     63.10% |       32113      1.90%     64.99% |       23721      1.40%     66.39% |       23826      1.41%     67.80% |       23316      1.38%     69.18% |       23944      1.41%     70.59% |       24287      1.43%     72.02% |       23685      1.40%     73.42% |       23174      1.37%     74.79% |       23475      1.39%     76.17% |       32493      1.92%     78.09% |       32802      1.94%     80.03% |       23608      1.39%     81.42% |       23497      1.39%     82.81% |       23196      1.37%     84.18% |       23663      1.40%     85.57% |       23254      1.37%     86.95% |       23176      1.37%     88.32% |       23364      1.38%     89.69% |       23508      1.39%     91.08% |       23631      1.39%     92.48% |       23073      1.36%     93.84% |       23679      1.40%     95.24% |       24467      1.44%     96.68% |       28957      1.71%     98.39% |       27270      1.61%    100.00%
system.ruby.SimicsNetworkPortInterface_Controller.MessageSend::total      1694120                      
system.ruby.SimicsNetworkPortInterface_Controller.MessageRecv |       74201      4.38%      4.38% |      847060     50.00%     54.38% |       33797      1.99%     56.37% |       28545      1.68%     58.06% |       24519      1.45%     59.51% |       26321      1.55%     61.06% |       34498      2.04%     63.10% |       32113      1.90%     64.99% |       23721      1.40%     66.39% |       23826      1.41%     67.80% |       23316      1.38%     69.18% |       23944      1.41%     70.59% |       24287      1.43%     72.02% |       23685      1.40%     73.42% |       23174      1.37%     74.79% |       23475      1.39%     76.17% |       32493      1.92%     78.09% |       32802      1.94%     80.03% |       23608      1.39%     81.42% |       23497      1.39%     82.81% |       23196      1.37%     84.18% |       23663      1.40%     85.57% |       23254      1.37%     86.95% |       23176      1.37%     88.32% |       23364      1.38%     89.69% |       23508      1.39%     91.08% |       23631      1.39%     92.48% |       23073      1.36%     93.84% |       23679      1.40%     95.24% |       24467      1.44%     96.68% |       28957      1.71%     98.39% |       27270      1.61%    100.00%
system.ruby.SimicsNetworkPortInterface_Controller.MessageRecv::total      1694120                      
system.ruby.SimicsNetworkPortInterface_Controller.A.MessageSend |       74201      4.38%      4.38% |      847060     50.00%     54.38% |       33797      1.99%     56.37% |       28545      1.68%     58.06% |       24519      1.45%     59.51% |       26321      1.55%     61.06% |       34498      2.04%     63.10% |       32113      1.90%     64.99% |       23721      1.40%     66.39% |       23826      1.41%     67.80% |       23316      1.38%     69.18% |       23944      1.41%     70.59% |       24287      1.43%     72.02% |       23685      1.40%     73.42% |       23174      1.37%     74.79% |       23475      1.39%     76.17% |       32493      1.92%     78.09% |       32802      1.94%     80.03% |       23608      1.39%     81.42% |       23497      1.39%     82.81% |       23196      1.37%     84.18% |       23663      1.40%     85.57% |       23254      1.37%     86.95% |       23176      1.37%     88.32% |       23364      1.38%     89.69% |       23508      1.39%     91.08% |       23631      1.39%     92.48% |       23073      1.36%     93.84% |       23679      1.40%     95.24% |       24467      1.44%     96.68% |       28957      1.71%     98.39% |       27270      1.61%    100.00%
system.ruby.SimicsNetworkPortInterface_Controller.A.MessageSend::total      1694120                      
system.ruby.SimicsNetworkPortInterface_Controller.A.MessageRecv |       74201      4.38%      4.38% |      847060     50.00%     54.38% |       33797      1.99%     56.37% |       28545      1.68%     58.06% |       24519      1.45%     59.51% |       26321      1.55%     61.06% |       34498      2.04%     63.10% |       32113      1.90%     64.99% |       23721      1.40%     66.39% |       23826      1.41%     67.80% |       23316      1.38%     69.18% |       23944      1.41%     70.59% |       24287      1.43%     72.02% |       23685      1.40%     73.42% |       23174      1.37%     74.79% |       23475      1.39%     76.17% |       32493      1.92%     78.09% |       32802      1.94%     80.03% |       23608      1.39%     81.42% |       23497      1.39%     82.81% |       23196      1.37%     84.18% |       23663      1.40%     85.57% |       23254      1.37%     86.95% |       23176      1.37%     88.32% |       23364      1.38%     89.69% |       23508      1.39%     91.08% |       23631      1.39%     92.48% |       23073      1.36%     93.84% |       23679      1.40%     95.24% |       24467      1.44%     96.68% |       28957      1.71%     98.39% |       27270      1.61%    100.00%
system.ruby.SimicsNetworkPortInterface_Controller.A.MessageRecv::total      1694120                      
system.switch_cpus.kern.inst.arm                    0                       # number of arm instructions executed
system.switch_cpus.kern.inst.quiesce                0                       # number of quiesce instructions executed

---------- End Simulation Statistics   ----------
