
---------- Begin Simulation Statistics ----------
sim_seconds                                  0.038832                       # Number of seconds simulated
sim_ticks                                 38831519500                       # Number of ticks simulated
final_tick                               5214999598000                       # Number of ticks from beginning of simulation (restored from checkpoints and never reset)
sim_freq                                 1000000000000                       # Frequency of simulated ticks
host_inst_rate                                 103625                       # Simulator instruction rate (inst/s)
host_op_rate                                   182456                       # Simulator op (including micro ops) rate (op/s)
host_tick_rate                              221372896                       # Simulator tick rate (ticks/s)
host_mem_usage                                3266016                       # Number of bytes of host memory used
host_seconds                                   175.41                       # Real time elapsed on the host
sim_insts                                    18177093                       # Number of instructions simulated
sim_ops                                      32004949                       # Number of ops (including micro ops) simulated
system.voltage_domain.voltage                       1                       # Voltage in Volts
system.clk_domain.clock                           500                       # Clock period in ticks
system.mem_ctrls0.bytes_read::ruby.dir_cntrl0      4688704                       # Number of bytes read from this memory
system.mem_ctrls0.bytes_read::total           4688704                       # Number of bytes read from this memory
system.mem_ctrls0.bytes_written::ruby.dir_cntrl0      2862144                       # Number of bytes written to this memory
system.mem_ctrls0.bytes_written::total        2862144                       # Number of bytes written to this memory
system.mem_ctrls0.num_reads::ruby.dir_cntrl0        73261                       # Number of read requests responded to by this memory
system.mem_ctrls0.num_reads::total              73261                       # Number of read requests responded to by this memory
system.mem_ctrls0.num_writes::ruby.dir_cntrl0        44721                       # Number of write requests responded to by this memory
system.mem_ctrls0.num_writes::total             44721                       # Number of write requests responded to by this memory
system.mem_ctrls0.bw_read::ruby.dir_cntrl0    120744799                       # Total read bandwidth from this memory (bytes/s)
system.mem_ctrls0.bw_read::total            120744799                       # Total read bandwidth from this memory (bytes/s)
system.mem_ctrls0.bw_write::ruby.dir_cntrl0     73706722                       # Write bandwidth from this memory (bytes/s)
system.mem_ctrls0.bw_write::total            73706722                       # Write bandwidth from this memory (bytes/s)
system.mem_ctrls0.bw_total::ruby.dir_cntrl0    194451520                       # Total bandwidth to/from this memory (bytes/s)
system.mem_ctrls0.bw_total::total           194451520                       # Total bandwidth to/from this memory (bytes/s)
system.mem_ctrls0.readReqs                      73261                       # Number of read requests accepted
system.mem_ctrls0.writeReqs                     44721                       # Number of write requests accepted
system.mem_ctrls0.readBursts                    73261                       # Number of DRAM read bursts, including those serviced by the write queue
system.mem_ctrls0.writeBursts                   44721                       # Number of DRAM write bursts, including those merged in the write queue
system.mem_ctrls0.bytesReadDRAM               4687872                       # Total number of bytes read from DRAM
system.mem_ctrls0.bytesReadWrQ                    832                       # Total number of bytes read from write queue
system.mem_ctrls0.bytesWritten                2862144                       # Total number of bytes written to DRAM
system.mem_ctrls0.bytesReadSys                4688704                       # Total read bytes from the system interface side
system.mem_ctrls0.bytesWrittenSys             2862144                       # Total written bytes from the system interface side
system.mem_ctrls0.servicedByWrQ                    13                       # Number of DRAM read bursts serviced by the write queue
system.mem_ctrls0.mergedWrBursts                    0                       # Number of DRAM write bursts merged with an existing one
system.mem_ctrls0.neitherReadNorWriteReqs            0                       # Number of requests that are neither read nor write
system.mem_ctrls0.perBankRdBursts::0             4426                       # Per bank write bursts
system.mem_ctrls0.perBankRdBursts::1             4891                       # Per bank write bursts
system.mem_ctrls0.perBankRdBursts::2             4541                       # Per bank write bursts
system.mem_ctrls0.perBankRdBursts::3             4886                       # Per bank write bursts
system.mem_ctrls0.perBankRdBursts::4             4634                       # Per bank write bursts
system.mem_ctrls0.perBankRdBursts::5             4726                       # Per bank write bursts
system.mem_ctrls0.perBankRdBursts::6             4552                       # Per bank write bursts
system.mem_ctrls0.perBankRdBursts::7             4522                       # Per bank write bursts
system.mem_ctrls0.perBankRdBursts::8             4505                       # Per bank write bursts
system.mem_ctrls0.perBankRdBursts::9             4793                       # Per bank write bursts
system.mem_ctrls0.perBankRdBursts::10            4517                       # Per bank write bursts
system.mem_ctrls0.perBankRdBursts::11            4732                       # Per bank write bursts
system.mem_ctrls0.perBankRdBursts::12            4351                       # Per bank write bursts
system.mem_ctrls0.perBankRdBursts::13            4197                       # Per bank write bursts
system.mem_ctrls0.perBankRdBursts::14            4469                       # Per bank write bursts
system.mem_ctrls0.perBankRdBursts::15            4506                       # Per bank write bursts
system.mem_ctrls0.perBankWrBursts::0             2818                       # Per bank write bursts
system.mem_ctrls0.perBankWrBursts::1             2810                       # Per bank write bursts
system.mem_ctrls0.perBankWrBursts::2             2793                       # Per bank write bursts
system.mem_ctrls0.perBankWrBursts::3             2882                       # Per bank write bursts
system.mem_ctrls0.perBankWrBursts::4             2801                       # Per bank write bursts
system.mem_ctrls0.perBankWrBursts::5             2939                       # Per bank write bursts
system.mem_ctrls0.perBankWrBursts::6             2769                       # Per bank write bursts
system.mem_ctrls0.perBankWrBursts::7             2846                       # Per bank write bursts
system.mem_ctrls0.perBankWrBursts::8             2740                       # Per bank write bursts
system.mem_ctrls0.perBankWrBursts::9             2919                       # Per bank write bursts
system.mem_ctrls0.perBankWrBursts::10            2766                       # Per bank write bursts
system.mem_ctrls0.perBankWrBursts::11            2698                       # Per bank write bursts
system.mem_ctrls0.perBankWrBursts::12            2633                       # Per bank write bursts
system.mem_ctrls0.perBankWrBursts::13            2670                       # Per bank write bursts
system.mem_ctrls0.perBankWrBursts::14            2876                       # Per bank write bursts
system.mem_ctrls0.perBankWrBursts::15            2761                       # Per bank write bursts
system.mem_ctrls0.numRdRetry                      458                       # Number of times read queue was full causing retry
system.mem_ctrls0.numWrRetry                     2274                       # Number of times write queue was full causing retry
system.mem_ctrls0.totGap                  38831007000                       # Total gap between requests
system.mem_ctrls0.readPktSize::0                    0                       # Read request sizes (log2)
system.mem_ctrls0.readPktSize::1                    0                       # Read request sizes (log2)
system.mem_ctrls0.readPktSize::2                    0                       # Read request sizes (log2)
system.mem_ctrls0.readPktSize::3                    0                       # Read request sizes (log2)
system.mem_ctrls0.readPktSize::4                    0                       # Read request sizes (log2)
system.mem_ctrls0.readPktSize::5                    0                       # Read request sizes (log2)
system.mem_ctrls0.readPktSize::6                73261                       # Read request sizes (log2)
system.mem_ctrls0.writePktSize::0                   0                       # Write request sizes (log2)
system.mem_ctrls0.writePktSize::1                   0                       # Write request sizes (log2)
system.mem_ctrls0.writePktSize::2                   0                       # Write request sizes (log2)
system.mem_ctrls0.writePktSize::3                   0                       # Write request sizes (log2)
system.mem_ctrls0.writePktSize::4                   0                       # Write request sizes (log2)
system.mem_ctrls0.writePktSize::5                   0                       # Write request sizes (log2)
system.mem_ctrls0.writePktSize::6               44721                       # Write request sizes (log2)
system.mem_ctrls0.rdQLenPdf::0                  45731                       # What read queue length does an incoming req see
system.mem_ctrls0.rdQLenPdf::1                   4298                       # What read queue length does an incoming req see
system.mem_ctrls0.rdQLenPdf::2                   3515                       # What read queue length does an incoming req see
system.mem_ctrls0.rdQLenPdf::3                   2892                       # What read queue length does an incoming req see
system.mem_ctrls0.rdQLenPdf::4                   2295                       # What read queue length does an incoming req see
system.mem_ctrls0.rdQLenPdf::5                   1929                       # What read queue length does an incoming req see
system.mem_ctrls0.rdQLenPdf::6                   1565                       # What read queue length does an incoming req see
system.mem_ctrls0.rdQLenPdf::7                   1347                       # What read queue length does an incoming req see
system.mem_ctrls0.rdQLenPdf::8                   1120                       # What read queue length does an incoming req see
system.mem_ctrls0.rdQLenPdf::9                   1004                       # What read queue length does an incoming req see
system.mem_ctrls0.rdQLenPdf::10                   870                       # What read queue length does an incoming req see
system.mem_ctrls0.rdQLenPdf::11                   718                       # What read queue length does an incoming req see
system.mem_ctrls0.rdQLenPdf::12                   645                       # What read queue length does an incoming req see
system.mem_ctrls0.rdQLenPdf::13                   563                       # What read queue length does an incoming req see
system.mem_ctrls0.rdQLenPdf::14                   474                       # What read queue length does an incoming req see
system.mem_ctrls0.rdQLenPdf::15                   414                       # What read queue length does an incoming req see
system.mem_ctrls0.rdQLenPdf::16                   382                       # What read queue length does an incoming req see
system.mem_ctrls0.rdQLenPdf::17                   324                       # What read queue length does an incoming req see
system.mem_ctrls0.rdQLenPdf::18                   296                       # What read queue length does an incoming req see
system.mem_ctrls0.rdQLenPdf::19                   280                       # What read queue length does an incoming req see
system.mem_ctrls0.rdQLenPdf::20                   252                       # What read queue length does an incoming req see
system.mem_ctrls0.rdQLenPdf::21                   229                       # What read queue length does an incoming req see
system.mem_ctrls0.rdQLenPdf::22                   220                       # What read queue length does an incoming req see
system.mem_ctrls0.rdQLenPdf::23                   186                       # What read queue length does an incoming req see
system.mem_ctrls0.rdQLenPdf::24                   176                       # What read queue length does an incoming req see
system.mem_ctrls0.rdQLenPdf::25                   163                       # What read queue length does an incoming req see
system.mem_ctrls0.rdQLenPdf::26                   160                       # What read queue length does an incoming req see
system.mem_ctrls0.rdQLenPdf::27                   150                       # What read queue length does an incoming req see
system.mem_ctrls0.rdQLenPdf::28                   159                       # What read queue length does an incoming req see
system.mem_ctrls0.rdQLenPdf::29                   151                       # What read queue length does an incoming req see
system.mem_ctrls0.rdQLenPdf::30                   147                       # What read queue length does an incoming req see
system.mem_ctrls0.rdQLenPdf::31                   593                       # What read queue length does an incoming req see
system.mem_ctrls0.wrQLenPdf::0                   7724                       # What write queue length does an incoming req see
system.mem_ctrls0.wrQLenPdf::1                   7986                       # What write queue length does an incoming req see
system.mem_ctrls0.wrQLenPdf::2                   8140                       # What write queue length does an incoming req see
system.mem_ctrls0.wrQLenPdf::3                   8219                       # What write queue length does an incoming req see
system.mem_ctrls0.wrQLenPdf::4                   8256                       # What write queue length does an incoming req see
system.mem_ctrls0.wrQLenPdf::5                    814                       # What write queue length does an incoming req see
system.mem_ctrls0.wrQLenPdf::6                    698                       # What write queue length does an incoming req see
system.mem_ctrls0.wrQLenPdf::7                   2884                       # What write queue length does an incoming req see
system.mem_ctrls0.bytesPerActivate::samples        32352                       # Bytes accessed per row activation
system.mem_ctrls0.bytesPerActivate::mean   233.363007                       # Bytes accessed per row activation
system.mem_ctrls0.bytesPerActivate::gmean   157.484310                       # Bytes accessed per row activation
system.mem_ctrls0.bytesPerActivate::stdev   234.209870                       # Bytes accessed per row activation
system.mem_ctrls0.bytesPerActivate::0-127        12591     38.92%     38.92% # Bytes accessed per row activation
system.mem_ctrls0.bytesPerActivate::128-255         7202     22.26%     61.18% # Bytes accessed per row activation
system.mem_ctrls0.bytesPerActivate::256-383         8060     24.91%     86.09% # Bytes accessed per row activation
system.mem_ctrls0.bytesPerActivate::384-511         1090      3.37%     89.46% # Bytes accessed per row activation
system.mem_ctrls0.bytesPerActivate::512-639          754      2.33%     91.79% # Bytes accessed per row activation
system.mem_ctrls0.bytesPerActivate::640-767          594      1.84%     93.63% # Bytes accessed per row activation
system.mem_ctrls0.bytesPerActivate::768-895          433      1.34%     94.97% # Bytes accessed per row activation
system.mem_ctrls0.bytesPerActivate::896-1023          426      1.32%     96.28% # Bytes accessed per row activation
system.mem_ctrls0.bytesPerActivate::1024-1151         1202      3.72%    100.00% # Bytes accessed per row activation
system.mem_ctrls0.bytesPerActivate::total        32352                       # Bytes accessed per row activation
system.mem_ctrls0.rdPerTurnAround::samples         7960                       # Reads before turning the bus around for writes
system.mem_ctrls0.rdPerTurnAround::mean      9.200628                       # Reads before turning the bus around for writes
system.mem_ctrls0.rdPerTurnAround::stdev    46.016536                       # Reads before turning the bus around for writes
system.mem_ctrls0.rdPerTurnAround::0-127         7953     99.91%     99.91% # Reads before turning the bus around for writes
system.mem_ctrls0.rdPerTurnAround::128-255            6      0.08%     99.99% # Reads before turning the bus around for writes
system.mem_ctrls0.rdPerTurnAround::3968-4095            1      0.01%    100.00% # Reads before turning the bus around for writes
system.mem_ctrls0.rdPerTurnAround::total         7960                       # Reads before turning the bus around for writes
system.mem_ctrls0.wrPerTurnAround::samples         7960                       # Writes before turning the bus around for reads
system.mem_ctrls0.wrPerTurnAround::mean      5.618216                       # Writes before turning the bus around for reads
system.mem_ctrls0.wrPerTurnAround::gmean     5.389478                       # Writes before turning the bus around for reads
system.mem_ctrls0.wrPerTurnAround::stdev     2.211370                       # Writes before turning the bus around for reads
system.mem_ctrls0.wrPerTurnAround::4-7           7446     93.54%     93.54% # Writes before turning the bus around for reads
system.mem_ctrls0.wrPerTurnAround::8-11           153      1.92%     95.46% # Writes before turning the bus around for reads
system.mem_ctrls0.wrPerTurnAround::12-15          107      1.34%     96.81% # Writes before turning the bus around for reads
system.mem_ctrls0.wrPerTurnAround::16-19          254      3.19%    100.00% # Writes before turning the bus around for reads
system.mem_ctrls0.wrPerTurnAround::total         7960                       # Writes before turning the bus around for reads
system.mem_ctrls0.totQLat                  3477506628                       # Total ticks spent queuing
system.mem_ctrls0.totMemAccLat             4850906628                       # Total ticks spent from burst creation until serviced by the DRAM
system.mem_ctrls0.totBusLat                 366240000                       # Total ticks spent in databus transfers
system.mem_ctrls0.avgQLat                    47475.79                       # Average queueing delay per DRAM burst
system.mem_ctrls0.avgBusLat                   5000.00                       # Average bus latency per DRAM burst
system.mem_ctrls0.avgMemAccLat               66225.79                       # Average memory access latency per DRAM burst
system.mem_ctrls0.avgRdBW                      120.72                       # Average DRAM read bandwidth in MiByte/s
system.mem_ctrls0.avgWrBW                       73.71                       # Average achieved write bandwidth in MiByte/s
system.mem_ctrls0.avgRdBWSys                   120.74                       # Average system read bandwidth in MiByte/s
system.mem_ctrls0.avgWrBWSys                    73.71                       # Average system write bandwidth in MiByte/s
system.mem_ctrls0.peakBW                     12800.00                       # Theoretical peak bandwidth in MiByte/s
system.mem_ctrls0.busUtil                        1.52                       # Data bus utilization in percentage
system.mem_ctrls0.busUtilRead                    0.94                       # Data bus utilization in percentage for reads
system.mem_ctrls0.busUtilWrite                   0.58                       # Data bus utilization in percentage for writes
system.mem_ctrls0.avgRdQLen                      1.12                       # Average read queue length when enqueuing
system.mem_ctrls0.avgWrQLen                      2.87                       # Average write queue length when enqueuing
system.mem_ctrls0.readRowHits                   56184                       # Number of row buffer hits during reads
system.mem_ctrls0.writeRowHits                  29432                       # Number of row buffer hits during writes
system.mem_ctrls0.readRowHitRate                76.70                       # Row buffer hit rate for reads
system.mem_ctrls0.writeRowHitRate               65.81                       # Row buffer hit rate for writes
system.mem_ctrls0.avgGap                    329126.54                       # Average gap between requests
system.mem_ctrls0.pageHitRate                   72.57                       # Row buffer hit rate, read and write combined
system.mem_ctrls0.memoryStateTime::IDLE   10429564500                       # Time in different power states
system.mem_ctrls0.memoryStateTime::REF     1296620000                       # Time in different power states
system.mem_ctrls0.memoryStateTime::PRE_PDN            0                       # Time in different power states
system.mem_ctrls0.memoryStateTime::ACT    27104344500                       # Time in different power states
system.mem_ctrls0.memoryStateTime::ACT_PDN            0                       # Time in different power states
system.mem_ctrls0.actEnergy::0              126599760                       # Energy for activate commands per rank (pJ)
system.mem_ctrls0.actEnergy::1              117981360                       # Energy for activate commands per rank (pJ)
system.mem_ctrls0.preEnergy::0               69077250                       # Energy for precharge commands per rank (pJ)
system.mem_ctrls0.preEnergy::1               64374750                       # Energy for precharge commands per rank (pJ)
system.mem_ctrls0.readEnergy::0             289988400                       # Energy for read commands per rank (pJ)
system.mem_ctrls0.readEnergy::1             281314800                       # Energy for read commands per rank (pJ)
system.mem_ctrls0.writeEnergy::0            146823840                       # Energy for write commands per rank (pJ)
system.mem_ctrls0.writeEnergy::1            142968240                       # Energy for write commands per rank (pJ)
system.mem_ctrls0.refreshEnergy::0         2536188720                       # Energy for refresh commands per rank (pJ)
system.mem_ctrls0.refreshEnergy::1         2536188720                       # Energy for refresh commands per rank (pJ)
system.mem_ctrls0.actBackEnergy::0        14169017250                       # Energy for active background per rank (pJ)
system.mem_ctrls0.actBackEnergy::1        13807265895                       # Energy for active background per rank (pJ)
system.mem_ctrls0.preBackEnergy::0        10869210750                       # Energy for precharge background per rank (pJ)
system.mem_ctrls0.preBackEnergy::1        11186536500                       # Energy for precharge background per rank (pJ)
system.mem_ctrls0.totalEnergy::0          28206905970                       # Total energy per rank (pJ)
system.mem_ctrls0.totalEnergy::1          28136630265                       # Total energy per rank (pJ)
system.mem_ctrls0.averagePower::0          726.415046                       # Core power per rank (mW)
system.mem_ctrls0.averagePower::1          724.605229                       # Core power per rank (mW)
system.mem_ctrls1.bytes_read::ruby.dir_cntrl1      4564288                       # Number of bytes read from this memory
system.mem_ctrls1.bytes_read::total           4564288                       # Number of bytes read from this memory
system.mem_ctrls1.bytes_written::ruby.dir_cntrl1      2746624                       # Number of bytes written to this memory
system.mem_ctrls1.bytes_written::total        2746624                       # Number of bytes written to this memory
system.mem_ctrls1.num_reads::ruby.dir_cntrl1        71317                       # Number of read requests responded to by this memory
system.mem_ctrls1.num_reads::total              71317                       # Number of read requests responded to by this memory
system.mem_ctrls1.num_writes::ruby.dir_cntrl1        42916                       # Number of write requests responded to by this memory
system.mem_ctrls1.num_writes::total             42916                       # Number of write requests responded to by this memory
system.mem_ctrls1.bw_read::ruby.dir_cntrl1    117540803                       # Total read bandwidth from this memory (bytes/s)
system.mem_ctrls1.bw_read::total            117540803                       # Total read bandwidth from this memory (bytes/s)
system.mem_ctrls1.bw_write::ruby.dir_cntrl1     70731819                       # Write bandwidth from this memory (bytes/s)
system.mem_ctrls1.bw_write::total            70731819                       # Write bandwidth from this memory (bytes/s)
system.mem_ctrls1.bw_total::ruby.dir_cntrl1    188272622                       # Total bandwidth to/from this memory (bytes/s)
system.mem_ctrls1.bw_total::total           188272622                       # Total bandwidth to/from this memory (bytes/s)
system.mem_ctrls1.readReqs                      71317                       # Number of read requests accepted
system.mem_ctrls1.writeReqs                     42916                       # Number of write requests accepted
system.mem_ctrls1.readBursts                    71317                       # Number of DRAM read bursts, including those serviced by the write queue
system.mem_ctrls1.writeBursts                   42916                       # Number of DRAM write bursts, including those merged in the write queue
system.mem_ctrls1.bytesReadDRAM               4563328                       # Total number of bytes read from DRAM
system.mem_ctrls1.bytesReadWrQ                    960                       # Total number of bytes read from write queue
system.mem_ctrls1.bytesWritten                2746560                       # Total number of bytes written to DRAM
system.mem_ctrls1.bytesReadSys                4564288                       # Total read bytes from the system interface side
system.mem_ctrls1.bytesWrittenSys             2746624                       # Total written bytes from the system interface side
system.mem_ctrls1.servicedByWrQ                    15                       # Number of DRAM read bursts serviced by the write queue
system.mem_ctrls1.mergedWrBursts                    0                       # Number of DRAM write bursts merged with an existing one
system.mem_ctrls1.neitherReadNorWriteReqs            0                       # Number of requests that are neither read nor write
system.mem_ctrls1.perBankRdBursts::0             4309                       # Per bank write bursts
system.mem_ctrls1.perBankRdBursts::1             4752                       # Per bank write bursts
system.mem_ctrls1.perBankRdBursts::2             4420                       # Per bank write bursts
system.mem_ctrls1.perBankRdBursts::3             4767                       # Per bank write bursts
system.mem_ctrls1.perBankRdBursts::4             4524                       # Per bank write bursts
system.mem_ctrls1.perBankRdBursts::5             4631                       # Per bank write bursts
system.mem_ctrls1.perBankRdBursts::6             4426                       # Per bank write bursts
system.mem_ctrls1.perBankRdBursts::7             4427                       # Per bank write bursts
system.mem_ctrls1.perBankRdBursts::8             4376                       # Per bank write bursts
system.mem_ctrls1.perBankRdBursts::9             4671                       # Per bank write bursts
system.mem_ctrls1.perBankRdBursts::10            4400                       # Per bank write bursts
system.mem_ctrls1.perBankRdBursts::11            4614                       # Per bank write bursts
system.mem_ctrls1.perBankRdBursts::12            4228                       # Per bank write bursts
system.mem_ctrls1.perBankRdBursts::13            4084                       # Per bank write bursts
system.mem_ctrls1.perBankRdBursts::14            4274                       # Per bank write bursts
system.mem_ctrls1.perBankRdBursts::15            4399                       # Per bank write bursts
system.mem_ctrls1.perBankWrBursts::0             2710                       # Per bank write bursts
system.mem_ctrls1.perBankWrBursts::1             2714                       # Per bank write bursts
system.mem_ctrls1.perBankWrBursts::2             2691                       # Per bank write bursts
system.mem_ctrls1.perBankWrBursts::3             2773                       # Per bank write bursts
system.mem_ctrls1.perBankWrBursts::4             2699                       # Per bank write bursts
system.mem_ctrls1.perBankWrBursts::5             2832                       # Per bank write bursts
system.mem_ctrls1.perBankWrBursts::6             2643                       # Per bank write bursts
system.mem_ctrls1.perBankWrBursts::7             2732                       # Per bank write bursts
system.mem_ctrls1.perBankWrBursts::8             2629                       # Per bank write bursts
system.mem_ctrls1.perBankWrBursts::9             2805                       # Per bank write bursts
system.mem_ctrls1.perBankWrBursts::10            2661                       # Per bank write bursts
system.mem_ctrls1.perBankWrBursts::11            2586                       # Per bank write bursts
system.mem_ctrls1.perBankWrBursts::12            2527                       # Per bank write bursts
system.mem_ctrls1.perBankWrBursts::13            2553                       # Per bank write bursts
system.mem_ctrls1.perBankWrBursts::14            2708                       # Per bank write bursts
system.mem_ctrls1.perBankWrBursts::15            2652                       # Per bank write bursts
system.mem_ctrls1.numRdRetry                      368                       # Number of times read queue was full causing retry
system.mem_ctrls1.numWrRetry                     2107                       # Number of times write queue was full causing retry
system.mem_ctrls1.totGap                  38830755000                       # Total gap between requests
system.mem_ctrls1.readPktSize::0                    0                       # Read request sizes (log2)
system.mem_ctrls1.readPktSize::1                    0                       # Read request sizes (log2)
system.mem_ctrls1.readPktSize::2                    0                       # Read request sizes (log2)
system.mem_ctrls1.readPktSize::3                    0                       # Read request sizes (log2)
system.mem_ctrls1.readPktSize::4                    0                       # Read request sizes (log2)
system.mem_ctrls1.readPktSize::5                    0                       # Read request sizes (log2)
system.mem_ctrls1.readPktSize::6                71317                       # Read request sizes (log2)
system.mem_ctrls1.writePktSize::0                   0                       # Write request sizes (log2)
system.mem_ctrls1.writePktSize::1                   0                       # Write request sizes (log2)
system.mem_ctrls1.writePktSize::2                   0                       # Write request sizes (log2)
system.mem_ctrls1.writePktSize::3                   0                       # Write request sizes (log2)
system.mem_ctrls1.writePktSize::4                   0                       # Write request sizes (log2)
system.mem_ctrls1.writePktSize::5                   0                       # Write request sizes (log2)
system.mem_ctrls1.writePktSize::6               42916                       # Write request sizes (log2)
system.mem_ctrls1.rdQLenPdf::0                  44920                       # What read queue length does an incoming req see
system.mem_ctrls1.rdQLenPdf::1                   3788                       # What read queue length does an incoming req see
system.mem_ctrls1.rdQLenPdf::2                   3281                       # What read queue length does an incoming req see
system.mem_ctrls1.rdQLenPdf::3                   2922                       # What read queue length does an incoming req see
system.mem_ctrls1.rdQLenPdf::4                   2418                       # What read queue length does an incoming req see
system.mem_ctrls1.rdQLenPdf::5                   1940                       # What read queue length does an incoming req see
system.mem_ctrls1.rdQLenPdf::6                   1602                       # What read queue length does an incoming req see
system.mem_ctrls1.rdQLenPdf::7                   1335                       # What read queue length does an incoming req see
system.mem_ctrls1.rdQLenPdf::8                   1174                       # What read queue length does an incoming req see
system.mem_ctrls1.rdQLenPdf::9                    978                       # What read queue length does an incoming req see
system.mem_ctrls1.rdQLenPdf::10                   855                       # What read queue length does an incoming req see
system.mem_ctrls1.rdQLenPdf::11                   707                       # What read queue length does an incoming req see
system.mem_ctrls1.rdQLenPdf::12                   586                       # What read queue length does an incoming req see
system.mem_ctrls1.rdQLenPdf::13                   518                       # What read queue length does an incoming req see
system.mem_ctrls1.rdQLenPdf::14                   463                       # What read queue length does an incoming req see
system.mem_ctrls1.rdQLenPdf::15                   434                       # What read queue length does an incoming req see
system.mem_ctrls1.rdQLenPdf::16                   376                       # What read queue length does an incoming req see
system.mem_ctrls1.rdQLenPdf::17                   318                       # What read queue length does an incoming req see
system.mem_ctrls1.rdQLenPdf::18                   273                       # What read queue length does an incoming req see
system.mem_ctrls1.rdQLenPdf::19                   242                       # What read queue length does an incoming req see
system.mem_ctrls1.rdQLenPdf::20                   223                       # What read queue length does an incoming req see
system.mem_ctrls1.rdQLenPdf::21                   219                       # What read queue length does an incoming req see
system.mem_ctrls1.rdQLenPdf::22                   181                       # What read queue length does an incoming req see
system.mem_ctrls1.rdQLenPdf::23                   165                       # What read queue length does an incoming req see
system.mem_ctrls1.rdQLenPdf::24                   167                       # What read queue length does an incoming req see
system.mem_ctrls1.rdQLenPdf::25                   151                       # What read queue length does an incoming req see
system.mem_ctrls1.rdQLenPdf::26                   140                       # What read queue length does an incoming req see
system.mem_ctrls1.rdQLenPdf::27                   115                       # What read queue length does an incoming req see
system.mem_ctrls1.rdQLenPdf::28                   122                       # What read queue length does an incoming req see
system.mem_ctrls1.rdQLenPdf::29                   111                       # What read queue length does an incoming req see
system.mem_ctrls1.rdQLenPdf::30                   104                       # What read queue length does an incoming req see
system.mem_ctrls1.rdQLenPdf::31                   474                       # What read queue length does an incoming req see
system.mem_ctrls1.wrQLenPdf::0                   7434                       # What write queue length does an incoming req see
system.mem_ctrls1.wrQLenPdf::1                   7632                       # What write queue length does an incoming req see
system.mem_ctrls1.wrQLenPdf::2                   7837                       # What write queue length does an incoming req see
system.mem_ctrls1.wrQLenPdf::3                   7939                       # What write queue length does an incoming req see
system.mem_ctrls1.wrQLenPdf::4                   7999                       # What write queue length does an incoming req see
system.mem_ctrls1.wrQLenPdf::5                    725                       # What write queue length does an incoming req see
system.mem_ctrls1.wrQLenPdf::6                    667                       # What write queue length does an incoming req see
system.mem_ctrls1.wrQLenPdf::7                   2683                       # What write queue length does an incoming req see
system.mem_ctrls1.bytesPerActivate::samples        28571                       # Bytes accessed per row activation
system.mem_ctrls1.bytesPerActivate::mean   255.834238                       # Bytes accessed per row activation
system.mem_ctrls1.bytesPerActivate::gmean   175.846227                       # Bytes accessed per row activation
system.mem_ctrls1.bytesPerActivate::stdev   241.758225                       # Bytes accessed per row activation
system.mem_ctrls1.bytesPerActivate::0-127         9298     32.54%     32.54% # Bytes accessed per row activation
system.mem_ctrls1.bytesPerActivate::128-255         6615     23.15%     55.70% # Bytes accessed per row activation
system.mem_ctrls1.bytesPerActivate::256-383         8026     28.09%     83.79% # Bytes accessed per row activation
system.mem_ctrls1.bytesPerActivate::384-511         1174      4.11%     87.90% # Bytes accessed per row activation
system.mem_ctrls1.bytesPerActivate::512-639          812      2.84%     90.74% # Bytes accessed per row activation
system.mem_ctrls1.bytesPerActivate::640-767          544      1.90%     92.64% # Bytes accessed per row activation
system.mem_ctrls1.bytesPerActivate::768-895          469      1.64%     94.28% # Bytes accessed per row activation
system.mem_ctrls1.bytesPerActivate::896-1023          459      1.61%     95.89% # Bytes accessed per row activation
system.mem_ctrls1.bytesPerActivate::1024-1151         1174      4.11%    100.00% # Bytes accessed per row activation
system.mem_ctrls1.bytesPerActivate::total        28571                       # Bytes accessed per row activation
system.mem_ctrls1.rdPerTurnAround::samples         7657                       # Reads before turning the bus around for writes
system.mem_ctrls1.rdPerTurnAround::mean      9.309390                       # Reads before turning the bus around for writes
system.mem_ctrls1.rdPerTurnAround::stdev    37.344086                       # Reads before turning the bus around for writes
system.mem_ctrls1.rdPerTurnAround::0-127         7649     99.90%     99.90% # Reads before turning the bus around for writes
system.mem_ctrls1.rdPerTurnAround::128-255            6      0.08%     99.97% # Reads before turning the bus around for writes
system.mem_ctrls1.rdPerTurnAround::1152-1279            1      0.01%     99.99% # Reads before turning the bus around for writes
system.mem_ctrls1.rdPerTurnAround::2816-2943            1      0.01%    100.00% # Reads before turning the bus around for writes
system.mem_ctrls1.rdPerTurnAround::total         7657                       # Reads before turning the bus around for writes
system.mem_ctrls1.wrPerTurnAround::samples         7657                       # Writes before turning the bus around for reads
system.mem_ctrls1.wrPerTurnAround::mean      5.604675                       # Writes before turning the bus around for reads
system.mem_ctrls1.wrPerTurnAround::gmean     5.375701                       # Writes before turning the bus around for reads
system.mem_ctrls1.wrPerTurnAround::stdev     2.216423                       # Writes before turning the bus around for reads
system.mem_ctrls1.wrPerTurnAround::4-7           7156     93.46%     93.46% # Writes before turning the bus around for reads
system.mem_ctrls1.wrPerTurnAround::8-11           155      2.02%     95.48% # Writes before turning the bus around for reads
system.mem_ctrls1.wrPerTurnAround::12-15           96      1.25%     96.74% # Writes before turning the bus around for reads
system.mem_ctrls1.wrPerTurnAround::16-19          250      3.26%    100.00% # Writes before turning the bus around for reads
system.mem_ctrls1.wrPerTurnAround::total         7657                       # Writes before turning the bus around for reads
system.mem_ctrls1.totQLat                  3055459148                       # Total ticks spent queuing
system.mem_ctrls1.totMemAccLat             4392371648                       # Total ticks spent from burst creation until serviced by the DRAM
system.mem_ctrls1.totBusLat                 356510000                       # Total ticks spent in databus transfers
system.mem_ctrls1.avgQLat                    42852.36                       # Average queueing delay per DRAM burst
system.mem_ctrls1.avgBusLat                   5000.00                       # Average bus latency per DRAM burst
system.mem_ctrls1.avgMemAccLat               61602.36                       # Average memory access latency per DRAM burst
system.mem_ctrls1.avgRdBW                      117.52                       # Average DRAM read bandwidth in MiByte/s
system.mem_ctrls1.avgWrBW                       70.73                       # Average achieved write bandwidth in MiByte/s
system.mem_ctrls1.avgRdBWSys                   117.54                       # Average system read bandwidth in MiByte/s
system.mem_ctrls1.avgWrBWSys                    70.73                       # Average system write bandwidth in MiByte/s
system.mem_ctrls1.peakBW                     12800.00                       # Theoretical peak bandwidth in MiByte/s
system.mem_ctrls1.busUtil                        1.47                       # Data bus utilization in percentage
system.mem_ctrls1.busUtilRead                    0.92                       # Data bus utilization in percentage for reads
system.mem_ctrls1.busUtilWrite                   0.55                       # Data bus utilization in percentage for writes
system.mem_ctrls1.avgRdQLen                      1.11                       # Average read queue length when enqueuing
system.mem_ctrls1.avgWrQLen                      2.86                       # Average write queue length when enqueuing
system.mem_ctrls1.readRowHits                   55782                       # Number of row buffer hits during reads
system.mem_ctrls1.writeRowHits                  29862                       # Number of row buffer hits during writes
system.mem_ctrls1.readRowHitRate                78.23                       # Row buffer hit rate for reads
system.mem_ctrls1.writeRowHitRate               69.58                       # Row buffer hit rate for writes
system.mem_ctrls1.avgGap                    339925.90                       # Average gap between requests
system.mem_ctrls1.pageHitRate                   74.98                       # Row buffer hit rate, read and write combined
system.mem_ctrls1.memoryStateTime::IDLE   10617688000                       # Time in different power states
system.mem_ctrls1.memoryStateTime::REF     1296620000                       # Time in different power states
system.mem_ctrls1.memoryStateTime::PRE_PDN            0                       # Time in different power states
system.mem_ctrls1.memoryStateTime::ACT    26915994500                       # Time in different power states
system.mem_ctrls1.memoryStateTime::ACT_PDN            0                       # Time in different power states
system.mem_ctrls1.actEnergy::0              112969080                       # Energy for activate commands per rank (pJ)
system.mem_ctrls1.actEnergy::1              103027680                       # Energy for activate commands per rank (pJ)
system.mem_ctrls1.preEnergy::0               61639875                       # Energy for precharge commands per rank (pJ)
system.mem_ctrls1.preEnergy::1               56215500                       # Energy for precharge commands per rank (pJ)
system.mem_ctrls1.readEnergy::0             282773400                       # Energy for read commands per rank (pJ)
system.mem_ctrls1.readEnergy::1             273327600                       # Energy for read commands per rank (pJ)
system.mem_ctrls1.writeEnergy::0            141225120                       # Energy for write commands per rank (pJ)
system.mem_ctrls1.writeEnergy::1            136864080                       # Energy for write commands per rank (pJ)
system.mem_ctrls1.refreshEnergy::0         2536188720                       # Energy for refresh commands per rank (pJ)
system.mem_ctrls1.refreshEnergy::1         2536188720                       # Energy for refresh commands per rank (pJ)
system.mem_ctrls1.actBackEnergy::0        14043540870                       # Energy for active background per rank (pJ)
system.mem_ctrls1.actBackEnergy::1        13379859090                       # Energy for active background per rank (pJ)
system.mem_ctrls1.preBackEnergy::0        10979277750                       # Energy for precharge background per rank (pJ)
system.mem_ctrls1.preBackEnergy::1        11561454750                       # Energy for precharge background per rank (pJ)
system.mem_ctrls1.totalEnergy::0          28157614815                       # Total energy per rank (pJ)
system.mem_ctrls1.totalEnergy::1          28046937420                       # Total energy per rank (pJ)
system.mem_ctrls1.averagePower::0          725.145646                       # Core power per rank (mW)
system.mem_ctrls1.averagePower::1          722.295361                       # Core power per rank (mW)
system.mem_ctrls2.bytes_read::ruby.dir_cntrl2      4566656                       # Number of bytes read from this memory
system.mem_ctrls2.bytes_read::total           4566656                       # Number of bytes read from this memory
system.mem_ctrls2.bytes_written::ruby.dir_cntrl2      2748160                       # Number of bytes written to this memory
system.mem_ctrls2.bytes_written::total        2748160                       # Number of bytes written to this memory
system.mem_ctrls2.num_reads::ruby.dir_cntrl2        71354                       # Number of read requests responded to by this memory
system.mem_ctrls2.num_reads::total              71354                       # Number of read requests responded to by this memory
system.mem_ctrls2.num_writes::ruby.dir_cntrl2        42940                       # Number of write requests responded to by this memory
system.mem_ctrls2.num_writes::total             42940                       # Number of write requests responded to by this memory
system.mem_ctrls2.bw_read::ruby.dir_cntrl2    117601785                       # Total read bandwidth from this memory (bytes/s)
system.mem_ctrls2.bw_read::total            117601785                       # Total read bandwidth from this memory (bytes/s)
system.mem_ctrls2.bw_write::ruby.dir_cntrl2     70771374                       # Write bandwidth from this memory (bytes/s)
system.mem_ctrls2.bw_write::total            70771374                       # Write bandwidth from this memory (bytes/s)
system.mem_ctrls2.bw_total::ruby.dir_cntrl2    188373159                       # Total bandwidth to/from this memory (bytes/s)
system.mem_ctrls2.bw_total::total           188373159                       # Total bandwidth to/from this memory (bytes/s)
system.mem_ctrls2.readReqs                      71354                       # Number of read requests accepted
system.mem_ctrls2.writeReqs                     42940                       # Number of write requests accepted
system.mem_ctrls2.readBursts                    71354                       # Number of DRAM read bursts, including those serviced by the write queue
system.mem_ctrls2.writeBursts                   42940                       # Number of DRAM write bursts, including those merged in the write queue
system.mem_ctrls2.bytesReadDRAM               4565696                       # Total number of bytes read from DRAM
system.mem_ctrls2.bytesReadWrQ                    960                       # Total number of bytes read from write queue
system.mem_ctrls2.bytesWritten                2748032                       # Total number of bytes written to DRAM
system.mem_ctrls2.bytesReadSys                4566656                       # Total read bytes from the system interface side
system.mem_ctrls2.bytesWrittenSys             2748160                       # Total written bytes from the system interface side
system.mem_ctrls2.servicedByWrQ                    15                       # Number of DRAM read bursts serviced by the write queue
system.mem_ctrls2.mergedWrBursts                    0                       # Number of DRAM write bursts merged with an existing one
system.mem_ctrls2.neitherReadNorWriteReqs            0                       # Number of requests that are neither read nor write
system.mem_ctrls2.perBankRdBursts::0             4292                       # Per bank write bursts
system.mem_ctrls2.perBankRdBursts::1             4781                       # Per bank write bursts
system.mem_ctrls2.perBankRdBursts::2             4434                       # Per bank write bursts
system.mem_ctrls2.perBankRdBursts::3             4798                       # Per bank write bursts
system.mem_ctrls2.perBankRdBursts::4             4535                       # Per bank write bursts
system.mem_ctrls2.perBankRdBursts::5             4626                       # Per bank write bursts
system.mem_ctrls2.perBankRdBursts::6             4418                       # Per bank write bursts
system.mem_ctrls2.perBankRdBursts::7             4419                       # Per bank write bursts
system.mem_ctrls2.perBankRdBursts::8             4357                       # Per bank write bursts
system.mem_ctrls2.perBankRdBursts::9             4653                       # Per bank write bursts
system.mem_ctrls2.perBankRdBursts::10            4395                       # Per bank write bursts
system.mem_ctrls2.perBankRdBursts::11            4652                       # Per bank write bursts
system.mem_ctrls2.perBankRdBursts::12            4240                       # Per bank write bursts
system.mem_ctrls2.perBankRdBursts::13            4073                       # Per bank write bursts
system.mem_ctrls2.perBankRdBursts::14            4263                       # Per bank write bursts
system.mem_ctrls2.perBankRdBursts::15            4403                       # Per bank write bursts
system.mem_ctrls2.perBankWrBursts::0             2703                       # Per bank write bursts
system.mem_ctrls2.perBankWrBursts::1             2712                       # Per bank write bursts
system.mem_ctrls2.perBankWrBursts::2             2688                       # Per bank write bursts
system.mem_ctrls2.perBankWrBursts::3             2789                       # Per bank write bursts
system.mem_ctrls2.perBankWrBursts::4             2697                       # Per bank write bursts
system.mem_ctrls2.perBankWrBursts::5             2821                       # Per bank write bursts
system.mem_ctrls2.perBankWrBursts::6             2646                       # Per bank write bursts
system.mem_ctrls2.perBankWrBursts::7             2734                       # Per bank write bursts
system.mem_ctrls2.perBankWrBursts::8             2629                       # Per bank write bursts
system.mem_ctrls2.perBankWrBursts::9             2811                       # Per bank write bursts
system.mem_ctrls2.perBankWrBursts::10            2656                       # Per bank write bursts
system.mem_ctrls2.perBankWrBursts::11            2599                       # Per bank write bursts
system.mem_ctrls2.perBankWrBursts::12            2536                       # Per bank write bursts
system.mem_ctrls2.perBankWrBursts::13            2548                       # Per bank write bursts
system.mem_ctrls2.perBankWrBursts::14            2715                       # Per bank write bursts
system.mem_ctrls2.perBankWrBursts::15            2654                       # Per bank write bursts
system.mem_ctrls2.numRdRetry                      331                       # Number of times read queue was full causing retry
system.mem_ctrls2.numWrRetry                     2245                       # Number of times write queue was full causing retry
system.mem_ctrls2.totGap                  38830994500                       # Total gap between requests
system.mem_ctrls2.readPktSize::0                    0                       # Read request sizes (log2)
system.mem_ctrls2.readPktSize::1                    0                       # Read request sizes (log2)
system.mem_ctrls2.readPktSize::2                    0                       # Read request sizes (log2)
system.mem_ctrls2.readPktSize::3                    0                       # Read request sizes (log2)
system.mem_ctrls2.readPktSize::4                    0                       # Read request sizes (log2)
system.mem_ctrls2.readPktSize::5                    0                       # Read request sizes (log2)
system.mem_ctrls2.readPktSize::6                71354                       # Read request sizes (log2)
system.mem_ctrls2.writePktSize::0                   0                       # Write request sizes (log2)
system.mem_ctrls2.writePktSize::1                   0                       # Write request sizes (log2)
system.mem_ctrls2.writePktSize::2                   0                       # Write request sizes (log2)
system.mem_ctrls2.writePktSize::3                   0                       # Write request sizes (log2)
system.mem_ctrls2.writePktSize::4                   0                       # Write request sizes (log2)
system.mem_ctrls2.writePktSize::5                   0                       # Write request sizes (log2)
system.mem_ctrls2.writePktSize::6               42940                       # Write request sizes (log2)
system.mem_ctrls2.rdQLenPdf::0                  45070                       # What read queue length does an incoming req see
system.mem_ctrls2.rdQLenPdf::1                   3838                       # What read queue length does an incoming req see
system.mem_ctrls2.rdQLenPdf::2                   3351                       # What read queue length does an incoming req see
system.mem_ctrls2.rdQLenPdf::3                   2974                       # What read queue length does an incoming req see
system.mem_ctrls2.rdQLenPdf::4                   2398                       # What read queue length does an incoming req see
system.mem_ctrls2.rdQLenPdf::5                   1950                       # What read queue length does an incoming req see
system.mem_ctrls2.rdQLenPdf::6                   1608                       # What read queue length does an incoming req see
system.mem_ctrls2.rdQLenPdf::7                   1345                       # What read queue length does an incoming req see
system.mem_ctrls2.rdQLenPdf::8                   1175                       # What read queue length does an incoming req see
system.mem_ctrls2.rdQLenPdf::9                    970                       # What read queue length does an incoming req see
system.mem_ctrls2.rdQLenPdf::10                   806                       # What read queue length does an incoming req see
system.mem_ctrls2.rdQLenPdf::11                   687                       # What read queue length does an incoming req see
system.mem_ctrls2.rdQLenPdf::12                   568                       # What read queue length does an incoming req see
system.mem_ctrls2.rdQLenPdf::13                   506                       # What read queue length does an incoming req see
system.mem_ctrls2.rdQLenPdf::14                   436                       # What read queue length does an incoming req see
system.mem_ctrls2.rdQLenPdf::15                   377                       # What read queue length does an incoming req see
system.mem_ctrls2.rdQLenPdf::16                   336                       # What read queue length does an incoming req see
system.mem_ctrls2.rdQLenPdf::17                   323                       # What read queue length does an incoming req see
system.mem_ctrls2.rdQLenPdf::18                   295                       # What read queue length does an incoming req see
system.mem_ctrls2.rdQLenPdf::19                   250                       # What read queue length does an incoming req see
system.mem_ctrls2.rdQLenPdf::20                   231                       # What read queue length does an incoming req see
system.mem_ctrls2.rdQLenPdf::21                   196                       # What read queue length does an incoming req see
system.mem_ctrls2.rdQLenPdf::22                   178                       # What read queue length does an incoming req see
system.mem_ctrls2.rdQLenPdf::23                   171                       # What read queue length does an incoming req see
system.mem_ctrls2.rdQLenPdf::24                   159                       # What read queue length does an incoming req see
system.mem_ctrls2.rdQLenPdf::25                   141                       # What read queue length does an incoming req see
system.mem_ctrls2.rdQLenPdf::26                   131                       # What read queue length does an incoming req see
system.mem_ctrls2.rdQLenPdf::27                   136                       # What read queue length does an incoming req see
system.mem_ctrls2.rdQLenPdf::28                   108                       # What read queue length does an incoming req see
system.mem_ctrls2.rdQLenPdf::29                    98                       # What read queue length does an incoming req see
system.mem_ctrls2.rdQLenPdf::30                   106                       # What read queue length does an incoming req see
system.mem_ctrls2.rdQLenPdf::31                   421                       # What read queue length does an incoming req see
system.mem_ctrls2.wrQLenPdf::0                   7430                       # What write queue length does an incoming req see
system.mem_ctrls2.wrQLenPdf::1                   7669                       # What write queue length does an incoming req see
system.mem_ctrls2.wrQLenPdf::2                   7799                       # What write queue length does an incoming req see
system.mem_ctrls2.wrQLenPdf::3                   7892                       # What write queue length does an incoming req see
system.mem_ctrls2.wrQLenPdf::4                   8005                       # What write queue length does an incoming req see
system.mem_ctrls2.wrQLenPdf::5                    717                       # What write queue length does an incoming req see
system.mem_ctrls2.wrQLenPdf::6                    631                       # What write queue length does an incoming req see
system.mem_ctrls2.wrQLenPdf::7                   2797                       # What write queue length does an incoming req see
system.mem_ctrls2.bytesPerActivate::samples        28515                       # Bytes accessed per row activation
system.mem_ctrls2.bytesPerActivate::mean   256.478064                       # Bytes accessed per row activation
system.mem_ctrls2.bytesPerActivate::gmean   176.733328                       # Bytes accessed per row activation
system.mem_ctrls2.bytesPerActivate::stdev   241.016343                       # Bytes accessed per row activation
system.mem_ctrls2.bytesPerActivate::0-127         9225     32.35%     32.35% # Bytes accessed per row activation
system.mem_ctrls2.bytesPerActivate::128-255         6576     23.06%     55.41% # Bytes accessed per row activation
system.mem_ctrls2.bytesPerActivate::256-383         8126     28.50%     83.91% # Bytes accessed per row activation
system.mem_ctrls2.bytesPerActivate::384-511         1117      3.92%     87.83% # Bytes accessed per row activation
system.mem_ctrls2.bytesPerActivate::512-639          797      2.80%     90.62% # Bytes accessed per row activation
system.mem_ctrls2.bytesPerActivate::640-767          612      2.15%     92.77% # Bytes accessed per row activation
system.mem_ctrls2.bytesPerActivate::768-895          463      1.62%     94.39% # Bytes accessed per row activation
system.mem_ctrls2.bytesPerActivate::896-1023          434      1.52%     95.91% # Bytes accessed per row activation
system.mem_ctrls2.bytesPerActivate::1024-1151         1165      4.09%    100.00% # Bytes accessed per row activation
system.mem_ctrls2.bytesPerActivate::total        28515                       # Bytes accessed per row activation
system.mem_ctrls2.rdPerTurnAround::samples         7656                       # Reads before turning the bus around for writes
system.mem_ctrls2.rdPerTurnAround::mean      9.315047                       # Reads before turning the bus around for writes
system.mem_ctrls2.rdPerTurnAround::stdev    37.457676                       # Reads before turning the bus around for writes
system.mem_ctrls2.rdPerTurnAround::0-127         7651     99.93%     99.93% # Reads before turning the bus around for writes
system.mem_ctrls2.rdPerTurnAround::128-255            3      0.04%     99.97% # Reads before turning the bus around for writes
system.mem_ctrls2.rdPerTurnAround::1152-1279            1      0.01%     99.99% # Reads before turning the bus around for writes
system.mem_ctrls2.rdPerTurnAround::2816-2943            1      0.01%    100.00% # Reads before turning the bus around for writes
system.mem_ctrls2.rdPerTurnAround::total         7656                       # Reads before turning the bus around for writes
system.mem_ctrls2.wrPerTurnAround::samples         7656                       # Writes before turning the bus around for reads
system.mem_ctrls2.wrPerTurnAround::mean      5.608412                       # Writes before turning the bus around for reads
system.mem_ctrls2.wrPerTurnAround::gmean     5.376636                       # Writes before turning the bus around for reads
system.mem_ctrls2.wrPerTurnAround::stdev     2.228256                       # Writes before turning the bus around for reads
system.mem_ctrls2.wrPerTurnAround::4-7           7143     93.30%     93.30% # Writes before turning the bus around for reads
system.mem_ctrls2.wrPerTurnAround::8-11           155      2.02%     95.32% # Writes before turning the bus around for reads
system.mem_ctrls2.wrPerTurnAround::12-15          108      1.41%     96.73% # Writes before turning the bus around for reads
system.mem_ctrls2.wrPerTurnAround::16-19          250      3.27%    100.00% # Writes before turning the bus around for reads
system.mem_ctrls2.wrPerTurnAround::total         7656                       # Writes before turning the bus around for reads
system.mem_ctrls2.totQLat                  3021539384                       # Total ticks spent queuing
system.mem_ctrls2.totMemAccLat             4359145634                       # Total ticks spent from burst creation until serviced by the DRAM
system.mem_ctrls2.totBusLat                 356695000                       # Total ticks spent in databus transfers
system.mem_ctrls2.avgQLat                    42354.66                       # Average queueing delay per DRAM burst
system.mem_ctrls2.avgBusLat                   5000.00                       # Average bus latency per DRAM burst
system.mem_ctrls2.avgMemAccLat               61104.66                       # Average memory access latency per DRAM burst
system.mem_ctrls2.avgRdBW                      117.58                       # Average DRAM read bandwidth in MiByte/s
system.mem_ctrls2.avgWrBW                       70.77                       # Average achieved write bandwidth in MiByte/s
system.mem_ctrls2.avgRdBWSys                   117.60                       # Average system read bandwidth in MiByte/s
system.mem_ctrls2.avgWrBWSys                    70.77                       # Average system write bandwidth in MiByte/s
system.mem_ctrls2.peakBW                     12800.00                       # Theoretical peak bandwidth in MiByte/s
system.mem_ctrls2.busUtil                        1.47                       # Data bus utilization in percentage
system.mem_ctrls2.busUtilRead                    0.92                       # Data bus utilization in percentage for reads
system.mem_ctrls2.busUtilWrite                   0.55                       # Data bus utilization in percentage for writes
system.mem_ctrls2.avgRdQLen                      1.10                       # Average read queue length when enqueuing
system.mem_ctrls2.avgWrQLen                      2.88                       # Average write queue length when enqueuing
system.mem_ctrls2.readRowHits                   55805                       # Number of row buffer hits during reads
system.mem_ctrls2.writeRowHits                  29955                       # Number of row buffer hits during writes
system.mem_ctrls2.readRowHitRate                78.23                       # Row buffer hit rate for reads
system.mem_ctrls2.writeRowHitRate               69.76                       # Row buffer hit rate for writes
system.mem_ctrls2.avgGap                    339746.57                       # Average gap between requests
system.mem_ctrls2.pageHitRate                   75.04                       # Row buffer hit rate, read and write combined
system.mem_ctrls2.memoryStateTime::IDLE   10523277000                       # Time in different power states
system.mem_ctrls2.memoryStateTime::REF     1296620000                       # Time in different power states
system.mem_ctrls2.memoryStateTime::PRE_PDN            0                       # Time in different power states
system.mem_ctrls2.memoryStateTime::ACT    27010747500                       # Time in different power states
system.mem_ctrls2.memoryStateTime::ACT_PDN            0                       # Time in different power states
system.mem_ctrls2.actEnergy::0              112787640                       # Energy for activate commands per rank (pJ)
system.mem_ctrls2.actEnergy::1              102785760                       # Energy for activate commands per rank (pJ)
system.mem_ctrls2.preEnergy::0               61540875                       # Energy for precharge commands per rank (pJ)
system.mem_ctrls2.preEnergy::1               56083500                       # Energy for precharge commands per rank (pJ)
system.mem_ctrls2.readEnergy::0             283147800                       # Energy for read commands per rank (pJ)
system.mem_ctrls2.readEnergy::1             273265200                       # Energy for read commands per rank (pJ)
system.mem_ctrls2.writeEnergy::0            141199200                       # Energy for write commands per rank (pJ)
system.mem_ctrls2.writeEnergy::1            137039040                       # Energy for write commands per rank (pJ)
system.mem_ctrls2.refreshEnergy::0         2536188720                       # Energy for refresh commands per rank (pJ)
system.mem_ctrls2.refreshEnergy::1         2536188720                       # Energy for refresh commands per rank (pJ)
system.mem_ctrls2.actBackEnergy::0        14088512160                       # Energy for active background per rank (pJ)
system.mem_ctrls2.actBackEnergy::1        13445222985                       # Energy for active background per rank (pJ)
system.mem_ctrls2.preBackEnergy::0        10939829250                       # Energy for precharge background per rank (pJ)
system.mem_ctrls2.preBackEnergy::1        11504118000                       # Energy for precharge background per rank (pJ)
system.mem_ctrls2.totalEnergy::0          28163205645                       # Total energy per rank (pJ)
system.mem_ctrls2.totalEnergy::1          28054703205                       # Total energy per rank (pJ)
system.mem_ctrls2.averagePower::0          725.289627                       # Core power per rank (mW)
system.mem_ctrls2.averagePower::1          722.495354                       # Core power per rank (mW)
system.mem_ctrls3.bytes_read::ruby.dir_cntrl3      4548544                       # Number of bytes read from this memory
system.mem_ctrls3.bytes_read::total           4548544                       # Number of bytes read from this memory
system.mem_ctrls3.bytes_written::ruby.dir_cntrl3      2743616                       # Number of bytes written to this memory
system.mem_ctrls3.bytes_written::total        2743616                       # Number of bytes written to this memory
system.mem_ctrls3.num_reads::ruby.dir_cntrl3        71071                       # Number of read requests responded to by this memory
system.mem_ctrls3.num_reads::total              71071                       # Number of read requests responded to by this memory
system.mem_ctrls3.num_writes::ruby.dir_cntrl3        42869                       # Number of write requests responded to by this memory
system.mem_ctrls3.num_writes::total             42869                       # Number of write requests responded to by this memory
system.mem_ctrls3.bw_read::ruby.dir_cntrl3    117135360                       # Total read bandwidth from this memory (bytes/s)
system.mem_ctrls3.bw_read::total            117135360                       # Total read bandwidth from this memory (bytes/s)
system.mem_ctrls3.bw_write::ruby.dir_cntrl3     70654356                       # Write bandwidth from this memory (bytes/s)
system.mem_ctrls3.bw_write::total            70654356                       # Write bandwidth from this memory (bytes/s)
system.mem_ctrls3.bw_total::ruby.dir_cntrl3    187789716                       # Total bandwidth to/from this memory (bytes/s)
system.mem_ctrls3.bw_total::total           187789716                       # Total bandwidth to/from this memory (bytes/s)
system.mem_ctrls3.readReqs                      71072                       # Number of read requests accepted
system.mem_ctrls3.writeReqs                     42869                       # Number of write requests accepted
system.mem_ctrls3.readBursts                    71072                       # Number of DRAM read bursts, including those serviced by the write queue
system.mem_ctrls3.writeBursts                   42869                       # Number of DRAM write bursts, including those merged in the write queue
system.mem_ctrls3.bytesReadDRAM               4548160                       # Total number of bytes read from DRAM
system.mem_ctrls3.bytesReadWrQ                    448                       # Total number of bytes read from write queue
system.mem_ctrls3.bytesWritten                2743424                       # Total number of bytes written to DRAM
system.mem_ctrls3.bytesReadSys                4548608                       # Total read bytes from the system interface side
system.mem_ctrls3.bytesWrittenSys             2743616                       # Total written bytes from the system interface side
system.mem_ctrls3.servicedByWrQ                     7                       # Number of DRAM read bursts serviced by the write queue
system.mem_ctrls3.mergedWrBursts                    0                       # Number of DRAM write bursts merged with an existing one
system.mem_ctrls3.neitherReadNorWriteReqs            0                       # Number of requests that are neither read nor write
system.mem_ctrls3.perBankRdBursts::0             4281                       # Per bank write bursts
system.mem_ctrls3.perBankRdBursts::1             4737                       # Per bank write bursts
system.mem_ctrls3.perBankRdBursts::2             4407                       # Per bank write bursts
system.mem_ctrls3.perBankRdBursts::3             4759                       # Per bank write bursts
system.mem_ctrls3.perBankRdBursts::4             4487                       # Per bank write bursts
system.mem_ctrls3.perBankRdBursts::5             4595                       # Per bank write bursts
system.mem_ctrls3.perBankRdBursts::6             4405                       # Per bank write bursts
system.mem_ctrls3.perBankRdBursts::7             4417                       # Per bank write bursts
system.mem_ctrls3.perBankRdBursts::8             4365                       # Per bank write bursts
system.mem_ctrls3.perBankRdBursts::9             4633                       # Per bank write bursts
system.mem_ctrls3.perBankRdBursts::10            4406                       # Per bank write bursts
system.mem_ctrls3.perBankRdBursts::11            4620                       # Per bank write bursts
system.mem_ctrls3.perBankRdBursts::12            4224                       # Per bank write bursts
system.mem_ctrls3.perBankRdBursts::13            4052                       # Per bank write bursts
system.mem_ctrls3.perBankRdBursts::14            4276                       # Per bank write bursts
system.mem_ctrls3.perBankRdBursts::15            4401                       # Per bank write bursts
system.mem_ctrls3.perBankWrBursts::0             2708                       # Per bank write bursts
system.mem_ctrls3.perBankWrBursts::1             2700                       # Per bank write bursts
system.mem_ctrls3.perBankWrBursts::2             2689                       # Per bank write bursts
system.mem_ctrls3.perBankWrBursts::3             2773                       # Per bank write bursts
system.mem_ctrls3.perBankWrBursts::4             2690                       # Per bank write bursts
system.mem_ctrls3.perBankWrBursts::5             2816                       # Per bank write bursts
system.mem_ctrls3.perBankWrBursts::6             2639                       # Per bank write bursts
system.mem_ctrls3.perBankWrBursts::7             2726                       # Per bank write bursts
system.mem_ctrls3.perBankWrBursts::8             2625                       # Per bank write bursts
system.mem_ctrls3.perBankWrBursts::9             2804                       # Per bank write bursts
system.mem_ctrls3.perBankWrBursts::10            2651                       # Per bank write bursts
system.mem_ctrls3.perBankWrBursts::11            2605                       # Per bank write bursts
system.mem_ctrls3.perBankWrBursts::12            2530                       # Per bank write bursts
system.mem_ctrls3.perBankWrBursts::13            2555                       # Per bank write bursts
system.mem_ctrls3.perBankWrBursts::14            2707                       # Per bank write bursts
system.mem_ctrls3.perBankWrBursts::15            2648                       # Per bank write bursts
system.mem_ctrls3.numRdRetry                      367                       # Number of times read queue was full causing retry
system.mem_ctrls3.numWrRetry                     2399                       # Number of times write queue was full causing retry
system.mem_ctrls3.totGap                  38830777000                       # Total gap between requests
system.mem_ctrls3.readPktSize::0                    0                       # Read request sizes (log2)
system.mem_ctrls3.readPktSize::1                    0                       # Read request sizes (log2)
system.mem_ctrls3.readPktSize::2                    0                       # Read request sizes (log2)
system.mem_ctrls3.readPktSize::3                    0                       # Read request sizes (log2)
system.mem_ctrls3.readPktSize::4                    0                       # Read request sizes (log2)
system.mem_ctrls3.readPktSize::5                    0                       # Read request sizes (log2)
system.mem_ctrls3.readPktSize::6                71072                       # Read request sizes (log2)
system.mem_ctrls3.writePktSize::0                   0                       # Write request sizes (log2)
system.mem_ctrls3.writePktSize::1                   0                       # Write request sizes (log2)
system.mem_ctrls3.writePktSize::2                   0                       # Write request sizes (log2)
system.mem_ctrls3.writePktSize::3                   0                       # Write request sizes (log2)
system.mem_ctrls3.writePktSize::4                   0                       # Write request sizes (log2)
system.mem_ctrls3.writePktSize::5                   0                       # Write request sizes (log2)
system.mem_ctrls3.writePktSize::6               42869                       # Write request sizes (log2)
system.mem_ctrls3.rdQLenPdf::0                  44567                       # What read queue length does an incoming req see
system.mem_ctrls3.rdQLenPdf::1                   3394                       # What read queue length does an incoming req see
system.mem_ctrls3.rdQLenPdf::2                   2963                       # What read queue length does an incoming req see
system.mem_ctrls3.rdQLenPdf::3                   2783                       # What read queue length does an incoming req see
system.mem_ctrls3.rdQLenPdf::4                   2426                       # What read queue length does an incoming req see
system.mem_ctrls3.rdQLenPdf::5                   1988                       # What read queue length does an incoming req see
system.mem_ctrls3.rdQLenPdf::6                   1749                       # What read queue length does an incoming req see
system.mem_ctrls3.rdQLenPdf::7                   1410                       # What read queue length does an incoming req see
system.mem_ctrls3.rdQLenPdf::8                   1262                       # What read queue length does an incoming req see
system.mem_ctrls3.rdQLenPdf::9                   1121                       # What read queue length does an incoming req see
system.mem_ctrls3.rdQLenPdf::10                   912                       # What read queue length does an incoming req see
system.mem_ctrls3.rdQLenPdf::11                   757                       # What read queue length does an incoming req see
system.mem_ctrls3.rdQLenPdf::12                   608                       # What read queue length does an incoming req see
system.mem_ctrls3.rdQLenPdf::13                   563                       # What read queue length does an incoming req see
system.mem_ctrls3.rdQLenPdf::14                   517                       # What read queue length does an incoming req see
system.mem_ctrls3.rdQLenPdf::15                   471                       # What read queue length does an incoming req see
system.mem_ctrls3.rdQLenPdf::16                   409                       # What read queue length does an incoming req see
system.mem_ctrls3.rdQLenPdf::17                   364                       # What read queue length does an incoming req see
system.mem_ctrls3.rdQLenPdf::18                   297                       # What read queue length does an incoming req see
system.mem_ctrls3.rdQLenPdf::19                   273                       # What read queue length does an incoming req see
system.mem_ctrls3.rdQLenPdf::20                   232                       # What read queue length does an incoming req see
system.mem_ctrls3.rdQLenPdf::21                   212                       # What read queue length does an incoming req see
system.mem_ctrls3.rdQLenPdf::22                   186                       # What read queue length does an incoming req see
system.mem_ctrls3.rdQLenPdf::23                   192                       # What read queue length does an incoming req see
system.mem_ctrls3.rdQLenPdf::24                   185                       # What read queue length does an incoming req see
[...]
system.ruby.L2Cache_Controller.IM.L1_GETX::total            2                      
system.ruby.L2Cache_Controller.IM.Mem_Data |        4705      3.12%      3.12% |        4697      3.12%      6.24% |        4706      3.12%      9.37% |        4713      3.13%     12.50% |        4704      3.12%     15.62% |        4711      3.13%     18.75% |        4710      3.13%     21.88% |        4694      3.12%     24.99% |        4710      3.13%     28.12% |        4711      3.13%     31.25% |        4696      3.12%     34.37% |        4715      3.13%     37.50% |        4700      3.12%     40.62% |        4703      3.12%     43.74% |        4702      3.12%     46.86% |        4698      3.12%     49.98% |        4716      3.13%     53.11% |        4710      3.13%     56.24% |        4712      3.13%     59.37% |        4706      3.12%     62.50% |        4709      3.13%     65.62% |        4723      3.14%     68.76% |        4702      3.12%     71.88% |        4707      3.13%     75.01% |        4720      3.13%     78.14% |        4710      3.13%     81.27% |        4716      3.13%     84.40% |        4702      3.12%     87.52% |        4703      3.12%     90.64% |        4699      3.12%     93.76% |        4703      3.12%     96.89% |        4688      3.11%    100.00%
system.ruby.L2Cache_Controller.IM.Mem_Data::total       150601                      
system.ruby.L2Cache_Controller.SS_MB.Exclusive_Unblock |           3      6.82%      6.82% |           6     13.64%     20.45% |           3      6.82%     27.27% |           4      9.09%     36.36% |           0      0.00%     36.36% |           0      0.00%     36.36% |           0      0.00%     36.36% |           0      0.00%     36.36% |           0      0.00%     36.36% |           0      0.00%     36.36% |           0      0.00%     36.36% |           0      0.00%     36.36% |           3      6.82%     43.18% |           0      0.00%     43.18% |           4      9.09%     52.27% |           0      0.00%     52.27% |           1      2.27%     54.55% |           0      0.00%     54.55% |          11     25.00%     79.55% |           2      4.55%     84.09% |           0      0.00%     84.09% |           1      2.27%     86.36% |           0      0.00%     86.36% |           1      2.27%     88.64% |           1      2.27%     90.91% |           0      0.00%     90.91% |           1      2.27%     93.18% |           2      4.55%     97.73% |           1      2.27%    100.00% |           0      0.00%    100.00% |           0      0.00%    100.00% |           0      0.00%    100.00%
system.ruby.L2Cache_Controller.SS_MB.Exclusive_Unblock::total           44                      
system.ruby.L2Cache_Controller.MT_MB.L1_GETS |           2     40.00%     40.00% |           0      0.00%     40.00% |           0      0.00%     40.00% |           0      0.00%     40.00% |           0      0.00%     40.00% |           0      0.00%     40.00% |           0      0.00%     40.00% |           0      0.00%     40.00% |           0      0.00%     40.00% |           0      0.00%     40.00% |           0      0.00%     40.00% |           0      0.00%     40.00% |           0      0.00%     40.00% |           0      0.00%     40.00% |           0      0.00%     40.00% |           0      0.00%     40.00% |           3     60.00%    100.00% |           0      0.00%    100.00% |           0      0.00%    100.00% |           0      0.00%    100.00% |           0      0.00%    100.00% |           0      0.00%    100.00% |           0      0.00%    100.00% |           0      0.00%    100.00% |           0      0.00%    100.00% |           0      0.00%    100.00% |           0      0.00%    100.00% |           0      0.00%    100.00% |           0      0.00%    100.00% |           0      0.00%    100.00% |           0      0.00%    100.00% |           0      0.00%    100.00%
system.ruby.L2Cache_Controller.MT_MB.L1_GETS::total            5                      
system.ruby.L2Cache_Controller.MT_MB.L1_GETX |           4     80.00%     80.00% |           0      0.00%     80.00% |           0      0.00%     80.00% |           0      0.00%     80.00% |           0      0.00%     80.00% |           0      0.00%     80.00% |           0      0.00%     80.00% |           0      0.00%     80.00% |           0      0.00%     80.00% |           0      0.00%     80.00% |           0      0.00%     80.00% |           0      0.00%     80.00% |           0      0.00%     80.00% |           0      0.00%     80.00% |           0      0.00%     80.00% |           0      0.00%     80.00% |           1     20.00%    100.00% |           0      0.00%    100.00% |           0      0.00%    100.00% |           0      0.00%    100.00% |           0      0.00%    100.00% |           0      0.00%    100.00% |           0      0.00%    100.00% |           0      0.00%    100.00% |           0      0.00%    100.00% |           0      0.00%    100.00% |           0      0.00%    100.00% |           0      0.00%    100.00% |           0      0.00%    100.00% |           0      0.00%    100.00% |           0      0.00%    100.00% |           0      0.00%    100.00%
system.ruby.L2Cache_Controller.MT_MB.L1_GETX::total            5                      
system.ruby.L2Cache_Controller.MT_MB.Exclusive_Unblock |       60416     12.23%     12.23% |       15538      3.15%     15.38% |       12748      2.58%     17.96% |       14800      3.00%     20.96% |       13335      2.70%     23.66% |       12717      2.57%     26.23% |       12241      2.48%     28.71% |       12902      2.61%     31.32% |       13097      2.65%     33.97% |       12757      2.58%     36.56% |       15510      3.14%     39.70% |       15760      3.19%     42.89% |       14126      2.86%     45.75% |       13215      2.68%     48.42% |       11998      2.43%     50.85% |       12462      2.52%     53.37% |       13977      2.83%     56.20% |       12805      2.59%     58.80% |       13229      2.68%     61.48% |       14224      2.88%     64.36% |       14904      3.02%     67.37% |       15882      3.22%     70.59% |       13721      2.78%     73.37% |       13754      2.78%     76.15% |       13835      2.80%     78.95% |       13398      2.71%     81.67% |       13249      2.68%     84.35% |       12958      2.62%     86.97% |       15562      3.15%     90.12% |       13986      2.83%     92.95% |       16356      3.31%     96.27% |       18447      3.73%    100.00%
system.ruby.L2Cache_Controller.MT_MB.Exclusive_Unblock::total       493909                      
system.ruby.L2Cache_Controller.MT_IIB.L1_PUTX |           3    100.00%    100.00% |           0      0.00%    100.00% |           0      0.00%    100.00% |           0      0.00%    100.00% |           0      0.00%    100.00% |           0      0.00%    100.00% |           0      0.00%    100.00% |           0      0.00%    100.00% |           0      0.00%    100.00% |           0      0.00%    100.00% |           0      0.00%    100.00% |           0      0.00%    100.00% |           0      0.00%    100.00% |           0      0.00%    100.00% |           0      0.00%    100.00% |           0      0.00%    100.00% |           0      0.00%    100.00% |           0      0.00%    100.00% |           0      0.00%    100.00% |           0      0.00%    100.00% |           0      0.00%    100.00% |           0      0.00%    100.00% |           0      0.00%    100.00% |           0      0.00%    100.00% |           0      0.00%    100.00% |           0      0.00%    100.00% |           0      0.00%    100.00% |           0      0.00%    100.00% |           0      0.00%    100.00% |           0      0.00%    100.00% |           0      0.00%    100.00% |           0      0.00%    100.00%
system.ruby.L2Cache_Controller.MT_IIB.L1_PUTX::total            3                      
system.ruby.L2Cache_Controller.MT_IIB.WB_Data |           0      0.00%      0.00% |           1     20.00%     20.00% |           1     20.00%     40.00% |           1     20.00%     60.00% |           0      0.00%     60.00% |           0      0.00%     60.00% |           1     20.00%     80.00% |           0      0.00%     80.00% |           0      0.00%     80.00% |           1     20.00%    100.00% |           0      0.00%    100.00% |           0      0.00%    100.00% |           0      0.00%    100.00% |           0      0.00%    100.00% |           0      0.00%    100.00% |           0      0.00%    100.00% |           0      0.00%    100.00% |           0      0.00%    100.00% |           0      0.00%    100.00% |           0      0.00%    100.00% |           0      0.00%    100.00% |           0      0.00%    100.00% |           0      0.00%    100.00% |           0      0.00%    100.00% |           0      0.00%    100.00% |           0      0.00%    100.00% |           0      0.00%    100.00% |           0      0.00%    100.00% |           0      0.00%    100.00% |           0      0.00%    100.00% |           0      0.00%    100.00% |           0      0.00%    100.00%
system.ruby.L2Cache_Controller.MT_IIB.WB_Data::total            5                      
system.ruby.L2Cache_Controller.MT_IIB.WB_Data_clean |        2977     50.59%     50.59% |           0      0.00%     50.59% |           0      0.00%     50.59% |           0      0.00%     50.59% |           0      0.00%     50.59% |           0      0.00%     50.59% |           0      0.00%     50.59% |           0      0.00%     50.59% |           0      0.00%     50.59% |           0      0.00%     50.59% |           0      0.00%     50.59% |           0      0.00%     50.59% |           0      0.00%     50.59% |           0      0.00%     50.59% |           0      0.00%     50.59% |           0      0.00%     50.59% |        2907     49.41%    100.00% |           0      0.00%    100.00% |           0      0.00%    100.00% |           0      0.00%    100.00% |           0      0.00%    100.00% |           0      0.00%    100.00% |           0      0.00%    100.00% |           0      0.00%    100.00% |           0      0.00%    100.00% |           0      0.00%    100.00% |           0      0.00%    100.00% |           0      0.00%    100.00% |           0      0.00%    100.00% |           0      0.00%    100.00% |           0      0.00%    100.00% |           0      0.00%    100.00%
system.ruby.L2Cache_Controller.MT_IIB.WB_Data_clean::total         5884                      
system.ruby.L2Cache_Controller.MT_IIB.Unblock |          50     24.51%     24.51% |           0      0.00%     24.51% |           0      0.00%     24.51% |           0      0.00%     24.51% |           0      0.00%     24.51% |           0      0.00%     24.51% |           0      0.00%     24.51% |           0      0.00%     24.51% |           0      0.00%     24.51% |           0      0.00%     24.51% |           0      0.00%     24.51% |           0      0.00%     24.51% |           0      0.00%     24.51% |           0      0.00%     24.51% |           0      0.00%     24.51% |           0      0.00%     24.51% |         154     75.49%    100.00% |           0      0.00%    100.00% |           0      0.00%    100.00% |           0      0.00%    100.00% |           0      0.00%    100.00% |           0      0.00%    100.00% |           0      0.00%    100.00% |           0      0.00%    100.00% |           0      0.00%    100.00% |           0      0.00%    100.00% |           0      0.00%    100.00% |           0      0.00%    100.00% |           0      0.00%    100.00% |           0      0.00%    100.00% |           0      0.00%    100.00% |           0      0.00%    100.00%
system.ruby.L2Cache_Controller.MT_IIB.Unblock::total          204                      
system.ruby.L2Cache_Controller.MT_IB.WB_Data_clean |          50     24.51%     24.51% |           0      0.00%     24.51% |           0      0.00%     24.51% |           0      0.00%     24.51% |           0      0.00%     24.51% |           0      0.00%     24.51% |           0      0.00%     24.51% |           0      0.00%     24.51% |           0      0.00%     24.51% |           0      0.00%     24.51% |           0      0.00%     24.51% |           0      0.00%     24.51% |           0      0.00%     24.51% |           0      0.00%     24.51% |           0      0.00%     24.51% |           0      0.00%     24.51% |         154     75.49%    100.00% |           0      0.00%    100.00% |           0      0.00%    100.00% |           0      0.00%    100.00% |           0      0.00%    100.00% |           0      0.00%    100.00% |           0      0.00%    100.00% |           0      0.00%    100.00% |           0      0.00%    100.00% |           0      0.00%    100.00% |           0      0.00%    100.00% |           0      0.00%    100.00% |           0      0.00%    100.00% |           0      0.00%    100.00% |           0      0.00%    100.00% |           0      0.00%    100.00%
system.ruby.L2Cache_Controller.MT_IB.WB_Data_clean::total          204                      
system.ruby.L2Cache_Controller.MT_SB.Unblock |        2977     50.55%     50.55% |           1      0.02%     50.57% |           1      0.02%     50.59% |           1      0.02%     50.60% |           0      0.00%     50.60% |           0      0.00%     50.60% |           1      0.02%     50.62% |           0      0.00%     50.62% |           0      0.00%     50.62% |           1      0.02%     50.64% |           0      0.00%     50.64% |           0      0.00%     50.64% |           0      0.00%     50.64% |           0      0.00%     50.64% |           0      0.00%     50.64% |           0      0.00%     50.64% |        2907     49.36%    100.00% |           0      0.00%    100.00% |           0      0.00%    100.00% |           0      0.00%    100.00% |           0      0.00%    100.00% |           0      0.00%    100.00% |           0      0.00%    100.00% |           0      0.00%    100.00% |           0      0.00%    100.00% |           0      0.00%    100.00% |           0      0.00%    100.00% |           0      0.00%    100.00% |           0      0.00%    100.00% |           0      0.00%    100.00% |           0      0.00%    100.00% |           0      0.00%    100.00%
system.ruby.L2Cache_Controller.MT_SB.Unblock::total         5889                      
system.ruby.SimicsNetworkPortInterface_Controller.MessageSend |       30213     14.00%     14.00% |      107930     50.00%     64.00% |        8652      4.01%     68.00% |        9295      4.31%     72.31% |       10053      4.66%     76.97% |        9776      4.53%     81.50% |        9046      4.19%     85.69% |       10382      4.81%     90.50% |       10349      4.79%     95.29% |       10164      4.71%    100.00% |           0      0.00%    100.00% |           0      0.00%    100.00% |           0      0.00%    100.00% |           0      0.00%    100.00% |           0      0.00%    100.00% |           0      0.00%    100.00% |           0      0.00%    100.00% |           0      0.00%    100.00% |           0      0.00%    100.00% |           0      0.00%    100.00% |           0      0.00%    100.00% |           0      0.00%    100.00% |           0      0.00%    100.00% |           0      0.00%    100.00% |           0      0.00%    100.00% |           0      0.00%    100.00% |           0      0.00%    100.00% |           0      0.00%    100.00% |           0      0.00%    100.00% |           0      0.00%    100.00% |           0      0.00%    100.00% |           0      0.00%    100.00%
system.ruby.SimicsNetworkPortInterface_Controller.MessageSend::total       215860                      
system.ruby.SimicsNetworkPortInterface_Controller.MessageRecv |       30213     14.00%     14.00% |      107930     50.00%     64.00% |        8652      4.01%     68.00% |        9295      4.31%     72.31% |       10053      4.66%     76.97% |        9776      4.53%     81.50% |        9046      4.19%     85.69% |       10382      4.81%     90.50% |       10349      4.79%     95.29% |       10164      4.71%    100.00% |           0      0.00%    100.00% |           0      0.00%    100.00% |           0      0.00%    100.00% |           0      0.00%    100.00% |           0      0.00%    100.00% |           0      0.00%    100.00% |           0      0.00%    100.00% |           0      0.00%    100.00% |           0      0.00%    100.00% |           0      0.00%    100.00% |           0      0.00%    100.00% |           0      0.00%    100.00% |           0      0.00%    100.00% |           0      0.00%    100.00% |           0      0.00%    100.00% |           0      0.00%    100.00% |           0      0.00%    100.00% |           0      0.00%    100.00% |           0      0.00%    100.00% |           0      0.00%    100.00% |           0      0.00%    100.00% |           0      0.00%    100.00%
system.ruby.SimicsNetworkPortInterface_Controller.MessageRecv::total       215860                      
system.ruby.SimicsNetworkPortInterface_Controller.A.MessageSend |       30213     14.00%     14.00% |      107930     50.00%     64.00% |        8652      4.01%     68.00% |        9295      4.31%     72.31% |       10053      4.66%     76.97% |        9776      4.53%     81.50% |        9046      4.19%     85.69% |       10382      4.81%     90.50% |       10349      4.79%     95.29% |       10164      4.71%    100.00% |           0      0.00%    100.00% |           0      0.00%    100.00% |           0      0.00%    100.00% |           0      0.00%    100.00% |           0      0.00%    100.00% |           0      0.00%    100.00% |           0      0.00%    100.00% |           0      0.00%    100.00% |           0      0.00%    100.00% |           0      0.00%    100.00% |           0      0.00%    100.00% |           0      0.00%    100.00% |           0      0.00%    100.00% |           0      0.00%    100.00% |           0      0.00%    100.00% |           0      0.00%    100.00% |           0      0.00%    100.00% |           0      0.00%    100.00% |           0      0.00%    100.00% |           0      0.00%    100.00% |           0      0.00%    100.00% |           0      0.00%    100.00%
system.ruby.SimicsNetworkPortInterface_Controller.A.MessageSend::total       215860                      
system.ruby.SimicsNetworkPortInterface_Controller.A.MessageRecv |       30213     14.00%     14.00% |      107930     50.00%     64.00% |        8652      4.01%     68.00% |        9295      4.31%     72.31% |       10053      4.66%     76.97% |        9776      4.53%     81.50% |        9046      4.19%     85.69% |       10382      4.81%     90.50% |       10349      4.79%     95.29% |       10164      4.71%    100.00% |           0      0.00%    100.00% |           0      0.00%    100.00% |           0      0.00%    100.00% |           0      0.00%    100.00% |           0      0.00%    100.00% |           0      0.00%    100.00% |           0      0.00%    100.00% |           0      0.00%    100.00% |           0      0.00%    100.00% |           0      0.00%    100.00% |           0      0.00%    100.00% |           0      0.00%    100.00% |           0      0.00%    100.00% |           0      0.00%    100.00% |           0      0.00%    100.00% |           0      0.00%    100.00% |           0      0.00%    100.00% |           0      0.00%    100.00% |           0      0.00%    100.00% |           0      0.00%    100.00% |           0      0.00%    100.00% |           0      0.00%    100.00%
system.ruby.SimicsNetworkPortInterface_Controller.A.MessageRecv::total       215860                      
system.switch_cpus.kern.inst.arm                    0                       # number of arm instructions executed
system.switch_cpus.kern.inst.quiesce                0                       # number of quiesce instructions executed

---------- End Simulation Statistics   ----------
