
---------- Begin Simulation Statistics ----------
sim_seconds                                  0.153824                       # Number of seconds simulated
sim_ticks                                153824037000                       # Number of ticks simulated
final_tick                               5329992115500                       # Number of ticks from beginning of simulation (restored from checkpoints and never reset)
sim_freq                                 1000000000000                       # Frequency of simulated ticks
host_inst_rate                                  42671                       # Simulator instruction rate (inst/s)
host_op_rate                                    81273                       # Simulator op (including micro ops) rate (op/s)
host_tick_rate                              101819201                       # Simulator tick rate (ticks/s)
host_mem_usage                                4097760                       # Number of bytes of host memory used
host_seconds                                  1510.76                       # Real time elapsed on the host
sim_insts                                    64465269                       # Number of instructions simulated
sim_ops                                     122784004                       # Number of ops (including micro ops) simulated
system.voltage_domain.voltage                       1                       # Voltage in Volts
system.clk_domain.clock                           500                       # Clock period in ticks
system.mem_ctrls0.bytes_read::ruby.dir_cntrl0     25324352                       # Number of bytes read from this memory
system.mem_ctrls0.bytes_read::total          25324352                       # Number of bytes read from this memory
system.mem_ctrls0.bytes_written::ruby.dir_cntrl0     21443200                       # Number of bytes written to this memory
system.mem_ctrls0.bytes_written::total       21443200                       # Number of bytes written to this memory
system.mem_ctrls0.num_reads::ruby.dir_cntrl0       395693                       # Number of read requests responded to by this memory
system.mem_ctrls0.num_reads::total             395693                       # Number of read requests responded to by this memory
system.mem_ctrls0.num_writes::ruby.dir_cntrl0       335050                       # Number of write requests responded to by this memory
system.mem_ctrls0.num_writes::total            335050                       # Number of write requests responded to by this memory
system.mem_ctrls0.bw_read::ruby.dir_cntrl0    164631955                       # Total read bandwidth from this memory (bytes/s)
system.mem_ctrls0.bw_read::total            164631955                       # Total read bandwidth from this memory (bytes/s)
system.mem_ctrls0.bw_write::ruby.dir_cntrl0    139400840                       # Write bandwidth from this memory (bytes/s)
system.mem_ctrls0.bw_write::total           139400840                       # Write bandwidth from this memory (bytes/s)
system.mem_ctrls0.bw_total::ruby.dir_cntrl0    304032796                       # Total bandwidth to/from this memory (bytes/s)
system.mem_ctrls0.bw_total::total           304032796                       # Total bandwidth to/from this memory (bytes/s)
system.mem_ctrls0.readReqs                     395694                       # Number of read requests accepted
system.mem_ctrls0.writeReqs                    335050                       # Number of write requests accepted
system.mem_ctrls0.readBursts                   395694                       # Number of DRAM read bursts, including those serviced by the write queue
system.mem_ctrls0.writeBursts                  335050                       # Number of DRAM write bursts, including those merged in the write queue
system.mem_ctrls0.bytesReadDRAM              25323456                       # Total number of bytes read from DRAM
system.mem_ctrls0.bytesReadWrQ                    960                       # Total number of bytes read from write queue
system.mem_ctrls0.bytesWritten               21442944                       # Total number of bytes written to DRAM
system.mem_ctrls0.bytesReadSys               25324416                       # Total read bytes from the system interface side
system.mem_ctrls0.bytesWrittenSys            21443200                       # Total written bytes from the system interface side
system.mem_ctrls0.servicedByWrQ                    15                       # Number of DRAM read bursts serviced by the write queue
system.mem_ctrls0.mergedWrBursts                    0                       # Number of DRAM write bursts merged with an existing one
system.mem_ctrls0.neitherReadNorWriteReqs            0                       # Number of requests that are neither read nor write
system.mem_ctrls0.perBankRdBursts::0            24410                       # Per bank write bursts
system.mem_ctrls0.perBankRdBursts::1            25135                       # Per bank write bursts
system.mem_ctrls0.perBankRdBursts::2            24699                       # Per bank write bursts
system.mem_ctrls0.perBankRdBursts::3            24993                       # Per bank write bursts
system.mem_ctrls0.perBankRdBursts::4            24629                       # Per bank write bursts
system.mem_ctrls0.perBankRdBursts::5            25012                       # Per bank write bursts
system.mem_ctrls0.perBankRdBursts::6            25053                       # Per bank write bursts
system.mem_ctrls0.perBankRdBursts::7            24796                       # Per bank write bursts
system.mem_ctrls0.perBankRdBursts::8            24696                       # Per bank write bursts
system.mem_ctrls0.perBankRdBursts::9            24833                       # Per bank write bursts
system.mem_ctrls0.perBankRdBursts::10           24632                       # Per bank write bursts
system.mem_ctrls0.perBankRdBursts::11           25137                       # Per bank write bursts
system.mem_ctrls0.perBankRdBursts::12           24378                       # Per bank write bursts
system.mem_ctrls0.perBankRdBursts::13           24290                       # Per bank write bursts
system.mem_ctrls0.perBankRdBursts::14           24459                       # Per bank write bursts
system.mem_ctrls0.perBankRdBursts::15           24527                       # Per bank write bursts
system.mem_ctrls0.perBankWrBursts::0            20979                       # Per bank write bursts
system.mem_ctrls0.perBankWrBursts::1            20889                       # Per bank write bursts
system.mem_ctrls0.perBankWrBursts::2            20865                       # Per bank write bursts
system.mem_ctrls0.perBankWrBursts::3            21175                       # Per bank write bursts
system.mem_ctrls0.perBankWrBursts::4            20789                       # Per bank write bursts
system.mem_ctrls0.perBankWrBursts::5            21089                       # Per bank write bursts
system.mem_ctrls0.perBankWrBursts::6            21106                       # Per bank write bursts
system.mem_ctrls0.perBankWrBursts::7            21044                       # Per bank write bursts
system.mem_ctrls0.perBankWrBursts::8            21125                       # Per bank write bursts
system.mem_ctrls0.perBankWrBursts::9            20915                       # Per bank write bursts
system.mem_ctrls0.perBankWrBursts::10           20849                       # Per bank write bursts
system.mem_ctrls0.perBankWrBursts::11           20857                       # Per bank write bursts
system.mem_ctrls0.perBankWrBursts::12           20673                       # Per bank write bursts
system.mem_ctrls0.perBankWrBursts::13           20913                       # Per bank write bursts
system.mem_ctrls0.perBankWrBursts::14           20950                       # Per bank write bursts
system.mem_ctrls0.perBankWrBursts::15           20828                       # Per bank write bursts
system.mem_ctrls0.numRdRetry                   160077                       # Number of times read queue was full causing retry
system.mem_ctrls0.numWrRetry                    17029                       # Number of times write queue was full causing retry
system.mem_ctrls0.totGap                 153823773000                       # Total gap between requests
system.mem_ctrls0.readPktSize::0                    0                       # Read request sizes (log2)
system.mem_ctrls0.readPktSize::1                    0                       # Read request sizes (log2)
system.mem_ctrls0.readPktSize::2                    0                       # Read request sizes (log2)
system.mem_ctrls0.readPktSize::3                    0                       # Read request sizes (log2)
system.mem_ctrls0.readPktSize::4                    0                       # Read request sizes (log2)
system.mem_ctrls0.readPktSize::5                    0                       # Read request sizes (log2)
system.mem_ctrls0.readPktSize::6               395694                       # Read request sizes (log2)
system.mem_ctrls0.writePktSize::0                   0                       # Write request sizes (log2)
system.mem_ctrls0.writePktSize::1                   0                       # Write request sizes (log2)
system.mem_ctrls0.writePktSize::2                   0                       # Write request sizes (log2)
system.mem_ctrls0.writePktSize::3                   0                       # Write request sizes (log2)
system.mem_ctrls0.writePktSize::4                   0                       # Write request sizes (log2)
system.mem_ctrls0.writePktSize::5                   0                       # Write request sizes (log2)
system.mem_ctrls0.writePktSize::6              335050                       # Write request sizes (log2)
system.mem_ctrls0.rdQLenPdf::0                 204425                       # What read queue length does an incoming req see
system.mem_ctrls0.rdQLenPdf::1                   5617                       # What read queue length does an incoming req see
system.mem_ctrls0.rdQLenPdf::2                   2995                       # What read queue length does an incoming req see
system.mem_ctrls0.rdQLenPdf::3                    478                       # What read queue length does an incoming req see
system.mem_ctrls0.rdQLenPdf::4                    517                       # What read queue length does an incoming req see
system.mem_ctrls0.rdQLenPdf::5                    569                       # What read queue length does an incoming req see
system.mem_ctrls0.rdQLenPdf::6                    575                       # What read queue length does an incoming req see
system.mem_ctrls0.rdQLenPdf::7                    601                       # What read queue length does an incoming req see
system.mem_ctrls0.rdQLenPdf::8                    584                       # What read queue length does an incoming req see
system.mem_ctrls0.rdQLenPdf::9                    590                       # What read queue length does an incoming req see
system.mem_ctrls0.rdQLenPdf::10                   559                       # What read queue length does an incoming req see
system.mem_ctrls0.rdQLenPdf::11                   600                       # What read queue length does an incoming req see
system.mem_ctrls0.rdQLenPdf::12                   570                       # What read queue length does an incoming req see
system.mem_ctrls0.rdQLenPdf::13                   571                       # What read queue length does an incoming req see
system.mem_ctrls0.rdQLenPdf::14                   592                       # What read queue length does an incoming req see
system.mem_ctrls0.rdQLenPdf::15                   576                       # What read queue length does an incoming req see
system.mem_ctrls0.rdQLenPdf::16                   554                       # What read queue length does an incoming req see
system.mem_ctrls0.rdQLenPdf::17                   576                       # What read queue length does an incoming req see
system.mem_ctrls0.rdQLenPdf::18                   545                       # What read queue length does an incoming req see
system.mem_ctrls0.rdQLenPdf::19                   536                       # What read queue length does an incoming req see
system.mem_ctrls0.rdQLenPdf::20                   532                       # What read queue length does an incoming req see
system.mem_ctrls0.rdQLenPdf::21                   540                       # What read queue length does an incoming req see
system.mem_ctrls0.rdQLenPdf::22                   561                       # What read queue length does an incoming req see
system.mem_ctrls0.rdQLenPdf::23                   543                       # What read queue length does an incoming req see
system.mem_ctrls0.rdQLenPdf::24                   594                       # What read queue length does an incoming req see
system.mem_ctrls0.rdQLenPdf::25                   629                       # What read queue length does an incoming req see
system.mem_ctrls0.rdQLenPdf::26                   686                       # What read queue length does an incoming req see
system.mem_ctrls0.rdQLenPdf::27                   762                       # What read queue length does an incoming req see
system.mem_ctrls0.rdQLenPdf::28                   849                       # What read queue length does an incoming req see
system.mem_ctrls0.rdQLenPdf::29                  1106                       # What read queue length does an incoming req see
system.mem_ctrls0.rdQLenPdf::30                  1829                       # What read queue length does an incoming req see
system.mem_ctrls0.rdQLenPdf::31                164418                       # What read queue length does an incoming req see
system.mem_ctrls0.wrQLenPdf::0                  48661                       # What write queue length does an incoming req see
system.mem_ctrls0.wrQLenPdf::1                  50237                       # What write queue length does an incoming req see
system.mem_ctrls0.wrQLenPdf::2                  51249                       # What write queue length does an incoming req see
system.mem_ctrls0.wrQLenPdf::3                  51719                       # What write queue length does an incoming req see
system.mem_ctrls0.wrQLenPdf::4                  53376                       # What write queue length does an incoming req see
system.mem_ctrls0.wrQLenPdf::5                  16967                       # What write queue length does an incoming req see
system.mem_ctrls0.wrQLenPdf::6                  23507                       # What write queue length does an incoming req see
system.mem_ctrls0.wrQLenPdf::7                  39334                       # What write queue length does an incoming req see
system.mem_ctrls0.bytesPerActivate::samples       237641                       # Bytes accessed per row activation
system.mem_ctrls0.bytesPerActivate::mean   196.789746                       # Bytes accessed per row activation
system.mem_ctrls0.bytesPerActivate::gmean   151.490797                       # Bytes accessed per row activation
system.mem_ctrls0.bytesPerActivate::stdev   148.374932                       # Bytes accessed per row activation
system.mem_ctrls0.bytesPerActivate::0-127        82569     34.75%     34.75% # Bytes accessed per row activation
system.mem_ctrls0.bytesPerActivate::128-255        64867     27.30%     62.04% # Bytes accessed per row activation
system.mem_ctrls0.bytesPerActivate::256-383        71280     29.99%     92.04% # Bytes accessed per row activation
system.mem_ctrls0.bytesPerActivate::384-511         9576      4.03%     96.07% # Bytes accessed per row activation
system.mem_ctrls0.bytesPerActivate::512-639         4804      2.02%     98.09% # Bytes accessed per row activation
system.mem_ctrls0.bytesPerActivate::640-767         1945      0.82%     98.91% # Bytes accessed per row activation
system.mem_ctrls0.bytesPerActivate::768-895          964      0.41%     99.31% # Bytes accessed per row activation
system.mem_ctrls0.bytesPerActivate::896-1023          695      0.29%     99.60% # Bytes accessed per row activation
system.mem_ctrls0.bytesPerActivate::1024-1151          941      0.40%    100.00% # Bytes accessed per row activation
system.mem_ctrls0.bytesPerActivate::total       237641                       # Bytes accessed per row activation
system.mem_ctrls0.rdPerTurnAround::samples        49764                       # Reads before turning the bus around for writes
system.mem_ctrls0.rdPerTurnAround::mean      7.950868                       # Reads before turning the bus around for writes
system.mem_ctrls0.rdPerTurnAround::stdev    18.964679                       # Reads before turning the bus around for writes
system.mem_ctrls0.rdPerTurnAround::0-127        49756     99.98%     99.98% # Reads before turning the bus around for writes
system.mem_ctrls0.rdPerTurnAround::128-255            7      0.01%    100.00% # Reads before turning the bus around for writes
system.mem_ctrls0.rdPerTurnAround::3968-4095            1      0.00%    100.00% # Reads before turning the bus around for writes
system.mem_ctrls0.rdPerTurnAround::total        49764                       # Reads before turning the bus around for writes
system.mem_ctrls0.wrPerTurnAround::samples        49764                       # Writes before turning the bus around for reads
system.mem_ctrls0.wrPerTurnAround::mean      6.732698                       # Writes before turning the bus around for reads
system.mem_ctrls0.wrPerTurnAround::gmean     6.107515                       # Writes before turning the bus around for reads
system.mem_ctrls0.wrPerTurnAround::stdev     3.560248                       # Writes before turning the bus around for reads
system.mem_ctrls0.wrPerTurnAround::4-7          40032     80.44%     80.44% # Writes before turning the bus around for reads
system.mem_ctrls0.wrPerTurnAround::8-11          1394      2.80%     83.24% # Writes before turning the bus around for reads
system.mem_ctrls0.wrPerTurnAround::12-15         5984     12.02%     95.27% # Writes before turning the bus around for reads
system.mem_ctrls0.wrPerTurnAround::16-19         2354      4.73%    100.00% # Writes before turning the bus around for reads
system.mem_ctrls0.wrPerTurnAround::total        49764                       # Writes before turning the bus around for reads
system.mem_ctrls0.totQLat                 69766597658                       # Total ticks spent queuing
system.mem_ctrls0.totMemAccLat            77185578908                       # Total ticks spent from burst creation until serviced by the DRAM
system.mem_ctrls0.totBusLat                1978395000                       # Total ticks spent in databus transfers
system.mem_ctrls0.avgQLat                   176321.20                       # Average queueing delay per DRAM burst
system.mem_ctrls0.avgBusLat                   5000.00                       # Average bus latency per DRAM burst
system.mem_ctrls0.avgMemAccLat              195071.20                       # Average memory access latency per DRAM burst
system.mem_ctrls0.avgRdBW                      164.63                       # Average DRAM read bandwidth in MiByte/s
system.mem_ctrls0.avgWrBW                      139.40                       # Average achieved write bandwidth in MiByte/s
system.mem_ctrls0.avgRdBWSys                   164.63                       # Average system read bandwidth in MiByte/s
system.mem_ctrls0.avgWrBWSys                   139.40                       # Average system write bandwidth in MiByte/s
system.mem_ctrls0.peakBW                     12800.00                       # Theoretical peak bandwidth in MiByte/s
system.mem_ctrls0.busUtil                        2.38                       # Data bus utilization in percentage
system.mem_ctrls0.busUtilRead                    1.29                       # Data bus utilization in percentage for reads
system.mem_ctrls0.busUtilWrite                   1.09                       # Data bus utilization in percentage for writes
system.mem_ctrls0.avgRdQLen                      1.46                       # Average read queue length when enqueuing
system.mem_ctrls0.avgWrQLen                      2.99                       # Average write queue length when enqueuing
system.mem_ctrls0.readRowHits                  284960                       # Number of row buffer hits during reads
system.mem_ctrls0.writeRowHits                 208114                       # Number of row buffer hits during writes
system.mem_ctrls0.readRowHitRate                72.02                       # Row buffer hit rate for reads
system.mem_ctrls0.writeRowHitRate               62.11                       # Row buffer hit rate for writes
system.mem_ctrls0.avgGap                    210502.96                       # Average gap between requests
system.mem_ctrls0.pageHitRate                   67.48                       # Row buffer hit rate, read and write combined
system.mem_ctrls0.memoryStateTime::IDLE   26565825750                       # Time in different power states
system.mem_ctrls0.memoryStateTime::REF     5136300000                       # Time in different power states
system.mem_ctrls0.memoryStateTime::PRE_PDN            0                       # Time in different power states
system.mem_ctrls0.memoryStateTime::ACT   122115523500                       # Time in different power states
system.mem_ctrls0.memoryStateTime::ACT_PDN            0                       # Time in different power states
system.mem_ctrls0.actEnergy::0              904138200                       # Energy for activate commands per rank (pJ)
system.mem_ctrls0.actEnergy::1              892163160                       # Energy for activate commands per rank (pJ)
system.mem_ctrls0.preEnergy::0              493329375                       # Energy for precharge commands per rank (pJ)
system.mem_ctrls0.preEnergy::1              486795375                       # Energy for precharge commands per rank (pJ)
system.mem_ctrls0.readEnergy::0            1549626000                       # Energy for read commands per rank (pJ)
system.mem_ctrls0.readEnergy::1            1536124200                       # Energy for read commands per rank (pJ)
system.mem_ctrls0.writeEnergy::0           1088154000                       # Energy for write commands per rank (pJ)
system.mem_ctrls0.writeEnergy::1           1082613600                       # Energy for write commands per rank (pJ)
system.mem_ctrls0.refreshEnergy::0        10046602800                       # Energy for refresh commands per rank (pJ)
system.mem_ctrls0.refreshEnergy::1        10046602800                       # Energy for refresh commands per rank (pJ)
system.mem_ctrls0.actBackEnergy::0        61117362225                       # Energy for active background per rank (pJ)
system.mem_ctrls0.actBackEnergy::1        60861487230                       # Energy for active background per rank (pJ)
system.mem_ctrls0.preBackEnergy::0        38678860500                       # Energy for precharge background per rank (pJ)
system.mem_ctrls0.preBackEnergy::1        38903312250                       # Energy for precharge background per rank (pJ)
system.mem_ctrls0.totalEnergy::0         113878073100                       # Total energy per rank (pJ)
system.mem_ctrls0.totalEnergy::1         113809098615                       # Total energy per rank (pJ)
system.mem_ctrls0.averagePower::0          740.344709                       # Core power per rank (mW)
system.mem_ctrls0.averagePower::1          739.896291                       # Core power per rank (mW)
system.mem_ctrls1.bytes_read::ruby.dir_cntrl1     24519744                       # Number of bytes read from this memory
system.mem_ctrls1.bytes_read::total          24519744                       # Number of bytes read from this memory
system.mem_ctrls1.bytes_written::ruby.dir_cntrl1     20681728                       # Number of bytes written to this memory
system.mem_ctrls1.bytes_written::total       20681728                       # Number of bytes written to this memory
system.mem_ctrls1.num_reads::ruby.dir_cntrl1       383121                       # Number of read requests responded to by this memory
system.mem_ctrls1.num_reads::total             383121                       # Number of read requests responded to by this memory
system.mem_ctrls1.num_writes::ruby.dir_cntrl1       323152                       # Number of write requests responded to by this memory
system.mem_ctrls1.num_writes::total            323152                       # Number of write requests responded to by this memory
system.mem_ctrls1.bw_read::ruby.dir_cntrl1    159401251                       # Total read bandwidth from this memory (bytes/s)
system.mem_ctrls1.bw_read::total            159401251                       # Total read bandwidth from this memory (bytes/s)
system.mem_ctrls1.bw_write::ruby.dir_cntrl1    134450561                       # Write bandwidth from this memory (bytes/s)
system.mem_ctrls1.bw_write::total           134450561                       # Write bandwidth from this memory (bytes/s)
system.mem_ctrls1.bw_total::ruby.dir_cntrl1    293851812                       # Total bandwidth to/from this memory (bytes/s)
system.mem_ctrls1.bw_total::total           293851812                       # Total bandwidth to/from this memory (bytes/s)
system.mem_ctrls1.readReqs                     383121                       # Number of read requests accepted
system.mem_ctrls1.writeReqs                    323152                       # Number of write requests accepted
system.mem_ctrls1.readBursts                   383121                       # Number of DRAM read bursts, including those serviced by the write queue
system.mem_ctrls1.writeBursts                  323152                       # Number of DRAM write bursts, including those merged in the write queue
system.mem_ctrls1.bytesReadDRAM              24518784                       # Total number of bytes read from DRAM
system.mem_ctrls1.bytesReadWrQ                    960                       # Total number of bytes read from write queue
system.mem_ctrls1.bytesWritten               20681536                       # Total number of bytes written to DRAM
system.mem_ctrls1.bytesReadSys               24519744                       # Total read bytes from the system interface side
system.mem_ctrls1.bytesWrittenSys            20681728                       # Total written bytes from the system interface side
system.mem_ctrls1.servicedByWrQ                    15                       # Number of DRAM read bursts serviced by the write queue
system.mem_ctrls1.mergedWrBursts                    0                       # Number of DRAM write bursts merged with an existing one
system.mem_ctrls1.neitherReadNorWriteReqs            0                       # Number of requests that are neither read nor write
system.mem_ctrls1.perBankRdBursts::0            23652                       # Per bank write bursts
system.mem_ctrls1.perBankRdBursts::1            24341                       # Per bank write bursts
system.mem_ctrls1.perBankRdBursts::2            23906                       # Per bank write bursts
system.mem_ctrls1.perBankRdBursts::3            24204                       # Per bank write bursts
system.mem_ctrls1.perBankRdBursts::4            23868                       # Per bank write bursts
system.mem_ctrls1.perBankRdBursts::5            24222                       # Per bank write bursts
system.mem_ctrls1.perBankRdBursts::6            24270                       # Per bank write bursts
system.mem_ctrls1.perBankRdBursts::7            24041                       # Per bank write bursts
system.mem_ctrls1.perBankRdBursts::8            23915                       # Per bank write bursts
system.mem_ctrls1.perBankRdBursts::9            24039                       # Per bank write bursts
system.mem_ctrls1.perBankRdBursts::10           23818                       # Per bank write bursts
system.mem_ctrls1.perBankRdBursts::11           24378                       # Per bank write bursts
system.mem_ctrls1.perBankRdBursts::12           23594                       # Per bank write bursts
system.mem_ctrls1.perBankRdBursts::13           23496                       # Per bank write bursts
system.mem_ctrls1.perBankRdBursts::14           23598                       # Per bank write bursts
system.mem_ctrls1.perBankRdBursts::15           23764                       # Per bank write bursts
system.mem_ctrls1.perBankWrBursts::0            20240                       # Per bank write bursts
system.mem_ctrls1.perBankWrBursts::1            20160                       # Per bank write bursts
system.mem_ctrls1.perBankWrBursts::2            20134                       # Per bank write bursts
system.mem_ctrls1.perBankWrBursts::3            20441                       # Per bank write bursts
system.mem_ctrls1.perBankWrBursts::4            20058                       # Per bank write bursts
system.mem_ctrls1.perBankWrBursts::5            20354                       # Per bank write bursts
system.mem_ctrls1.perBankWrBursts::6            20347                       # Per bank write bursts
system.mem_ctrls1.perBankWrBursts::7            20296                       # Per bank write bursts
system.mem_ctrls1.perBankWrBursts::8            20372                       # Per bank write bursts
system.mem_ctrls1.perBankWrBursts::9            20169                       # Per bank write bursts
system.mem_ctrls1.perBankWrBursts::10           20109                       # Per bank write bursts
system.mem_ctrls1.perBankWrBursts::11           20127                       # Per bank write bursts
system.mem_ctrls1.perBankWrBursts::12           19930                       # Per bank write bursts
system.mem_ctrls1.perBankWrBursts::13           20170                       # Per bank write bursts
system.mem_ctrls1.perBankWrBursts::14           20155                       # Per bank write bursts
system.mem_ctrls1.perBankWrBursts::15           20087                       # Per bank write bursts
system.mem_ctrls1.numRdRetry                   146152                       # Number of times read queue was full causing retry
system.mem_ctrls1.numWrRetry                    16439                       # Number of times write queue was full causing retry
system.mem_ctrls1.totGap                 153823282000                       # Total gap between requests
system.mem_ctrls1.readPktSize::0                    0                       # Read request sizes (log2)
system.mem_ctrls1.readPktSize::1                    0                       # Read request sizes (log2)
system.mem_ctrls1.readPktSize::2                    0                       # Read request sizes (log2)
system.mem_ctrls1.readPktSize::3                    0                       # Read request sizes (log2)
system.mem_ctrls1.readPktSize::4                    0                       # Read request sizes (log2)
system.mem_ctrls1.readPktSize::5                    0                       # Read request sizes (log2)
system.mem_ctrls1.readPktSize::6               383121                       # Read request sizes (log2)
system.mem_ctrls1.writePktSize::0                   0                       # Write request sizes (log2)
system.mem_ctrls1.writePktSize::1                   0                       # Write request sizes (log2)
system.mem_ctrls1.writePktSize::2                   0                       # Write request sizes (log2)
system.mem_ctrls1.writePktSize::3                   0                       # Write request sizes (log2)
system.mem_ctrls1.writePktSize::4                   0                       # Write request sizes (log2)
system.mem_ctrls1.writePktSize::5                   0                       # Write request sizes (log2)
system.mem_ctrls1.writePktSize::6              323152                       # Write request sizes (log2)
system.mem_ctrls1.rdQLenPdf::0                 200442                       # What read queue length does an incoming req see
system.mem_ctrls1.rdQLenPdf::1                   1524                       # What read queue length does an incoming req see
system.mem_ctrls1.rdQLenPdf::2                    952                       # What read queue length does an incoming req see
system.mem_ctrls1.rdQLenPdf::3                   1047                       # What read queue length does an incoming req see
system.mem_ctrls1.rdQLenPdf::4                   1135                       # What read queue length does an incoming req see
system.mem_ctrls1.rdQLenPdf::5                   1205                       # What read queue length does an incoming req see
system.mem_ctrls1.rdQLenPdf::6                   1256                       # What read queue length does an incoming req see
system.mem_ctrls1.rdQLenPdf::7                   1249                       # What read queue length does an incoming req see
system.mem_ctrls1.rdQLenPdf::8                   1232                       # What read queue length does an incoming req see
system.mem_ctrls1.rdQLenPdf::9                   1174                       # What read queue length does an incoming req see
system.mem_ctrls1.rdQLenPdf::10                  1102                       # What read queue length does an incoming req see
system.mem_ctrls1.rdQLenPdf::11                  1041                       # What read queue length does an incoming req see
system.mem_ctrls1.rdQLenPdf::12                  1047                       # What read queue length does an incoming req see
system.mem_ctrls1.rdQLenPdf::13                   988                       # What read queue length does an incoming req see
system.mem_ctrls1.rdQLenPdf::14                   956                       # What read queue length does an incoming req see
system.mem_ctrls1.rdQLenPdf::15                   959                       # What read queue length does an incoming req see
system.mem_ctrls1.rdQLenPdf::16                   881                       # What read queue length does an incoming req see
system.mem_ctrls1.rdQLenPdf::17                   907                       # What read queue length does an incoming req see
system.mem_ctrls1.rdQLenPdf::18                   895                       # What read queue length does an incoming req see
system.mem_ctrls1.rdQLenPdf::19                   941                       # What read queue length does an incoming req see
system.mem_ctrls1.rdQLenPdf::20                   920                       # What read queue length does an incoming req see
system.mem_ctrls1.rdQLenPdf::21                   914                       # What read queue length does an incoming req see
system.mem_ctrls1.rdQLenPdf::22                   911                       # What read queue length does an incoming req see
system.mem_ctrls1.rdQLenPdf::23                   897                       # What read queue length does an incoming req see
system.mem_ctrls1.rdQLenPdf::24                   927                       # What read queue length does an incoming req see
system.mem_ctrls1.rdQLenPdf::25                   993                       # What read queue length does an incoming req see
system.mem_ctrls1.rdQLenPdf::26                   985                       # What read queue length does an incoming req see
system.mem_ctrls1.rdQLenPdf::27                  1002                       # What read queue length does an incoming req see
system.mem_ctrls1.rdQLenPdf::28                  1031                       # What read queue length does an incoming req see
system.mem_ctrls1.rdQLenPdf::29                  1258                       # What read queue length does an incoming req see
system.mem_ctrls1.rdQLenPdf::30                  1817                       # What read queue length does an incoming req see
system.mem_ctrls1.rdQLenPdf::31                150518                       # What read queue length does an incoming req see
system.mem_ctrls1.wrQLenPdf::0                  46679                       # What write queue length does an incoming req see
system.mem_ctrls1.wrQLenPdf::1                  48311                       # What write queue length does an incoming req see
system.mem_ctrls1.wrQLenPdf::2                  49081                       # What write queue length does an incoming req see
system.mem_ctrls1.wrQLenPdf::3                  50059                       # What write queue length does an incoming req see
system.mem_ctrls1.wrQLenPdf::4                  51789                       # What write queue length does an incoming req see
system.mem_ctrls1.wrQLenPdf::5                  16821                       # What write queue length does an incoming req see
system.mem_ctrls1.wrQLenPdf::6                  22743                       # What write queue length does an incoming req see
system.mem_ctrls1.wrQLenPdf::7                  37669                       # What write queue length does an incoming req see
system.mem_ctrls1.bytesPerActivate::samples       207045                       # Bytes accessed per row activation
system.mem_ctrls1.bytesPerActivate::mean   218.303538                       # Bytes accessed per row activation
system.mem_ctrls1.bytesPerActivate::gmean   172.554521                       # Bytes accessed per row activation
system.mem_ctrls1.bytesPerActivate::stdev   152.969373                       # Bytes accessed per row activation
system.mem_ctrls1.bytesPerActivate::0-127        52380     25.30%     25.30% # Bytes accessed per row activation
system.mem_ctrls1.bytesPerActivate::128-255        63190     30.52%     55.82% # Bytes accessed per row activation
system.mem_ctrls1.bytesPerActivate::256-383        71452     34.51%     90.33% # Bytes accessed per row activation
system.mem_ctrls1.bytesPerActivate::384-511         9678      4.67%     95.00% # Bytes accessed per row activation
system.mem_ctrls1.bytesPerActivate::512-639         5282      2.55%     97.55% # Bytes accessed per row activation
system.mem_ctrls1.bytesPerActivate::640-767         2075      1.00%     98.56% # Bytes accessed per row activation
system.mem_ctrls1.bytesPerActivate::768-895         1107      0.53%     99.09% # Bytes accessed per row activation
system.mem_ctrls1.bytesPerActivate::896-1023          790      0.38%     99.47% # Bytes accessed per row activation
system.mem_ctrls1.bytesPerActivate::1024-1151         1091      0.53%    100.00% # Bytes accessed per row activation
system.mem_ctrls1.bytesPerActivate::total       207045                       # Bytes accessed per row activation
system.mem_ctrls1.rdPerTurnAround::samples        47941                       # Reads before turning the bus around for writes
system.mem_ctrls1.rdPerTurnAround::mean      7.990947                       # Reads before turning the bus around for writes
system.mem_ctrls1.rdPerTurnAround::stdev    15.633543                       # Reads before turning the bus around for writes
system.mem_ctrls1.rdPerTurnAround::0-127        47935     99.99%     99.99% # Reads before turning the bus around for writes
system.mem_ctrls1.rdPerTurnAround::128-255            4      0.01%    100.00% # Reads before turning the bus around for writes
system.mem_ctrls1.rdPerTurnAround::1152-1279            1      0.00%    100.00% # Reads before turning the bus around for writes
system.mem_ctrls1.rdPerTurnAround::2816-2943            1      0.00%    100.00% # Reads before turning the bus around for writes
system.mem_ctrls1.rdPerTurnAround::total        47941                       # Reads before turning the bus around for writes
system.mem_ctrls1.wrPerTurnAround::samples        47941                       # Writes before turning the bus around for reads
system.mem_ctrls1.wrPerTurnAround::mean      6.740556                       # Writes before turning the bus around for reads
system.mem_ctrls1.wrPerTurnAround::gmean     6.108365                       # Writes before turning the bus around for reads
system.mem_ctrls1.wrPerTurnAround::stdev     3.580014                       # Writes before turning the bus around for reads
system.mem_ctrls1.wrPerTurnAround::4-7          38346     79.99%     79.99% # Writes before turning the bus around for reads
system.mem_ctrls1.wrPerTurnAround::8-11          1602      3.34%     83.33% # Writes before turning the bus around for reads
system.mem_ctrls1.wrPerTurnAround::12-15         5594     11.67%     95.00% # Writes before turning the bus around for reads
system.mem_ctrls1.wrPerTurnAround::16-19         2399      5.00%    100.00% # Writes before turning the bus around for reads
system.mem_ctrls1.wrPerTurnAround::total        47941                       # Writes before turning the bus around for reads
system.mem_ctrls1.totQLat                 65077662939                       # Total ticks spent queuing
system.mem_ctrls1.totMemAccLat            72260900439                       # Total ticks spent from burst creation until serviced by the DRAM
system.mem_ctrls1.totBusLat                1915530000                       # Total ticks spent in databus transfers
system.mem_ctrls1.avgQLat                   169868.56                       # Average queueing delay per DRAM burst
system.mem_ctrls1.avgBusLat                   5000.00                       # Average bus latency per DRAM burst
system.mem_ctrls1.avgMemAccLat              188618.56                       # Average memory access latency per DRAM burst
system.mem_ctrls1.avgRdBW                      159.40                       # Average DRAM read bandwidth in MiByte/s
system.mem_ctrls1.avgWrBW                      134.45                       # Average achieved write bandwidth in MiByte/s
system.mem_ctrls1.avgRdBWSys                   159.40                       # Average system read bandwidth in MiByte/s
system.mem_ctrls1.avgWrBWSys                   134.45                       # Average system write bandwidth in MiByte/s
system.mem_ctrls1.peakBW                     12800.00                       # Theoretical peak bandwidth in MiByte/s
system.mem_ctrls1.busUtil                        2.30                       # Data bus utilization in percentage
system.mem_ctrls1.busUtilRead                    1.25                       # Data bus utilization in percentage for reads
system.mem_ctrls1.busUtilWrite                   1.05                       # Data bus utilization in percentage for writes
system.mem_ctrls1.avgRdQLen                      1.43                       # Average read queue length when enqueuing
system.mem_ctrls1.avgWrQLen                      3.00                       # Average write queue length when enqueuing
system.mem_ctrls1.readRowHits                  282839                       # Number of row buffer hits during reads
system.mem_ctrls1.writeRowHits                 216362                       # Number of row buffer hits during writes
system.mem_ctrls1.readRowHitRate                73.83                       # Row buffer hit rate for reads
system.mem_ctrls1.writeRowHitRate               66.95                       # Row buffer hit rate for writes
system.mem_ctrls1.avgGap                    217795.78                       # Average gap between requests
system.mem_ctrls1.pageHitRate                   70.68                       # Row buffer hit rate, read and write combined
system.mem_ctrls1.memoryStateTime::IDLE   27042396500                       # Time in different power states
system.mem_ctrls1.memoryStateTime::REF     5136300000                       # Time in different power states
system.mem_ctrls1.memoryStateTime::PRE_PDN            0                       # Time in different power states
system.mem_ctrls1.memoryStateTime::ACT   121638949750                       # Time in different power states
system.mem_ctrls1.memoryStateTime::ACT_PDN            0                       # Time in different power states
system.mem_ctrls1.actEnergy::0              788923800                       # Energy for activate commands per rank (pJ)
system.mem_ctrls1.actEnergy::1              776192760                       # Energy for activate commands per rank (pJ)
system.mem_ctrls1.preEnergy::0              430464375                       # Energy for precharge commands per rank (pJ)
system.mem_ctrls1.preEnergy::1              423517875                       # Energy for precharge commands per rank (pJ)
system.mem_ctrls1.readEnergy::0            1501102200                       # Energy for read commands per rank (pJ)
system.mem_ctrls1.readEnergy::1            1486633200                       # Energy for read commands per rank (pJ)
system.mem_ctrls1.writeEnergy::0           1049889600                       # Energy for write commands per rank (pJ)
system.mem_ctrls1.writeEnergy::1           1043785440                       # Energy for write commands per rank (pJ)
system.mem_ctrls1.refreshEnergy::0        10046602800                       # Energy for refresh commands per rank (pJ)
system.mem_ctrls1.refreshEnergy::1        10046602800                       # Energy for refresh commands per rank (pJ)
system.mem_ctrls1.actBackEnergy::0        60084978795                       # Energy for active background per rank (pJ)
system.mem_ctrls1.actBackEnergy::1        59609644965                       # Energy for active background per rank (pJ)
system.mem_ctrls1.preBackEnergy::0        39584457750                       # Energy for precharge background per rank (pJ)
system.mem_ctrls1.preBackEnergy::1        40001417250                       # Energy for precharge background per rank (pJ)
system.mem_ctrls1.totalEnergy::0         113486419320                       # Total energy per rank (pJ)
system.mem_ctrls1.totalEnergy::1         113387794290                       # Total energy per rank (pJ)
system.mem_ctrls1.averagePower::0          737.798505                       # Core power per rank (mW)
system.mem_ctrls1.averagePower::1          737.157324                       # Core power per rank (mW)
system.mem_ctrls2.bytes_read::ruby.dir_cntrl2     24519680                       # Number of bytes read from this memory
system.mem_ctrls2.bytes_read::total          24519680                       # Number of bytes read from this memory
system.mem_ctrls2.bytes_written::ruby.dir_cntrl2     20683200                       # Number of bytes written to this memory
system.mem_ctrls2.bytes_written::total       20683200                       # Number of bytes written to this memory
system.mem_ctrls2.num_reads::ruby.dir_cntrl2       383120                       # Number of read requests responded to by this memory
system.mem_ctrls2.num_reads::total             383120                       # Number of read requests responded to by this memory
system.mem_ctrls2.num_writes::ruby.dir_cntrl2       323175                       # Number of write requests responded to by this memory
system.mem_ctrls2.num_writes::total            323175                       # Number of write requests responded to by this memory
system.mem_ctrls2.bw_read::ruby.dir_cntrl2    159400835                       # Total read bandwidth from this memory (bytes/s)
system.mem_ctrls2.bw_read::total            159400835                       # Total read bandwidth from this memory (bytes/s)
system.mem_ctrls2.bw_write::ruby.dir_cntrl2    134460130                       # Write bandwidth from this memory (bytes/s)
system.mem_ctrls2.bw_write::total           134460130                       # Write bandwidth from this memory (bytes/s)
system.mem_ctrls2.bw_total::ruby.dir_cntrl2    293860965                       # Total bandwidth to/from this memory (bytes/s)
system.mem_ctrls2.bw_total::total           293860965                       # Total bandwidth to/from this memory (bytes/s)
system.mem_ctrls2.readReqs                     383120                       # Number of read requests accepted
system.mem_ctrls2.writeReqs                    323175                       # Number of write requests accepted
system.mem_ctrls2.readBursts                   383120                       # Number of DRAM read bursts, including those serviced by the write queue
system.mem_ctrls2.writeBursts                  323175                       # Number of DRAM write bursts, including those merged in the write queue
system.mem_ctrls2.bytesReadDRAM              24518528                       # Total number of bytes read from DRAM
system.mem_ctrls2.bytesReadWrQ                   1152                       # Total number of bytes read from write queue
system.mem_ctrls2.bytesWritten               20683072                       # Total number of bytes written to DRAM
system.mem_ctrls2.bytesReadSys               24519680                       # Total read bytes from the system interface side
system.mem_ctrls2.bytesWrittenSys            20683200                       # Total written bytes from the system interface side
system.mem_ctrls2.servicedByWrQ                    18                       # Number of DRAM read bursts serviced by the write queue
system.mem_ctrls2.mergedWrBursts                    0                       # Number of DRAM write bursts merged with an existing one
system.mem_ctrls2.neitherReadNorWriteReqs            0                       # Number of requests that are neither read nor write
system.mem_ctrls2.perBankRdBursts::0            23640                       # Per bank write bursts
system.mem_ctrls2.perBankRdBursts::1            24311                       # Per bank write bursts
system.mem_ctrls2.perBankRdBursts::2            23950                       # Per bank write bursts
system.mem_ctrls2.perBankRdBursts::3            24276                       # Per bank write bursts
system.mem_ctrls2.perBankRdBursts::4            23867                       # Per bank write bursts
system.mem_ctrls2.perBankRdBursts::5            24190                       # Per bank write bursts
system.mem_ctrls2.perBankRdBursts::6            24264                       # Per bank write bursts
system.mem_ctrls2.perBankRdBursts::7            24028                       # Per bank write bursts
system.mem_ctrls2.perBankRdBursts::8            23897                       # Per bank write bursts
system.mem_ctrls2.perBankRdBursts::9            24053                       # Per bank write bursts
system.mem_ctrls2.perBankRdBursts::10           23828                       # Per bank write bursts
system.mem_ctrls2.perBankRdBursts::11           24355                       # Per bank write bursts
system.mem_ctrls2.perBankRdBursts::12           23625                       # Per bank write bursts
system.mem_ctrls2.perBankRdBursts::13           23439                       # Per bank write bursts
system.mem_ctrls2.perBankRdBursts::14           23589                       # Per bank write bursts
system.mem_ctrls2.perBankRdBursts::15           23790                       # Per bank write bursts
system.mem_ctrls2.perBankWrBursts::0            20233                       # Per bank write bursts
system.mem_ctrls2.perBankWrBursts::1            20158                       # Per bank write bursts
system.mem_ctrls2.perBankWrBursts::2            20136                       # Per bank write bursts
system.mem_ctrls2.perBankWrBursts::3            20446                       # Per bank write bursts
system.mem_ctrls2.perBankWrBursts::4            20060                       # Per bank write bursts
system.mem_ctrls2.perBankWrBursts::5            20339                       # Per bank write bursts
system.mem_ctrls2.perBankWrBursts::6            20355                       # Per bank write bursts
system.mem_ctrls2.perBankWrBursts::7            20304                       # Per bank write bursts
system.mem_ctrls2.perBankWrBursts::8            20373                       # Per bank write bursts
system.mem_ctrls2.perBankWrBursts::9            20176                       # Per bank write bursts
system.mem_ctrls2.perBankWrBursts::10           20103                       # Per bank write bursts
system.mem_ctrls2.perBankWrBursts::11           20124                       # Per bank write bursts
system.mem_ctrls2.perBankWrBursts::12           19937                       # Per bank write bursts
system.mem_ctrls2.perBankWrBursts::13           20165                       # Per bank write bursts
system.mem_ctrls2.perBankWrBursts::14           20162                       # Per bank write bursts
system.mem_ctrls2.perBankWrBursts::15           20102                       # Per bank write bursts
system.mem_ctrls2.numRdRetry                   143869                       # Number of times read queue was full causing retry
system.mem_ctrls2.numWrRetry                    16837                       # Number of times write queue was full causing retry
system.mem_ctrls2.totGap                 153823209000                       # Total gap between requests
system.mem_ctrls2.readPktSize::0                    0                       # Read request sizes (log2)
system.mem_ctrls2.readPktSize::1                    0                       # Read request sizes (log2)
system.mem_ctrls2.readPktSize::2                    0                       # Read request sizes (log2)
system.mem_ctrls2.readPktSize::3                    0                       # Read request sizes (log2)
system.mem_ctrls2.readPktSize::4                    0                       # Read request sizes (log2)
system.mem_ctrls2.readPktSize::5                    0                       # Read request sizes (log2)
system.mem_ctrls2.readPktSize::6               383120                       # Read request sizes (log2)
system.mem_ctrls2.writePktSize::0                   0                       # Write request sizes (log2)
system.mem_ctrls2.writePktSize::1                   0                       # Write request sizes (log2)
system.mem_ctrls2.writePktSize::2                   0                       # Write request sizes (log2)
system.mem_ctrls2.writePktSize::3                   0                       # Write request sizes (log2)
system.mem_ctrls2.writePktSize::4                   0                       # Write request sizes (log2)
system.mem_ctrls2.writePktSize::5                   0                       # Write request sizes (log2)
system.mem_ctrls2.writePktSize::6              323175                       # Write request sizes (log2)
system.mem_ctrls2.rdQLenPdf::0                 200700                       # What read queue length does an incoming req see
system.mem_ctrls2.rdQLenPdf::1                   1340                       # What read queue length does an incoming req see
system.mem_ctrls2.rdQLenPdf::2                   1046                       # What read queue length does an incoming req see
system.mem_ctrls2.rdQLenPdf::3                   1085                       # What read queue length does an incoming req see
system.mem_ctrls2.rdQLenPdf::4                   1213                       # What read queue length does an incoming req see
system.mem_ctrls2.rdQLenPdf::5                   1266                       # What read queue length does an incoming req see
system.mem_ctrls2.rdQLenPdf::6                   1285                       # What read queue length does an incoming req see
system.mem_ctrls2.rdQLenPdf::7                   1261                       # What read queue length does an incoming req see
system.mem_ctrls2.rdQLenPdf::8                   1234                       # What read queue length does an incoming req see
system.mem_ctrls2.rdQLenPdf::9                   1224                       # What read queue length does an incoming req see
system.mem_ctrls2.rdQLenPdf::10                  1183                       # What read queue length does an incoming req see
system.mem_ctrls2.rdQLenPdf::11                  1135                       # What read queue length does an incoming req see
system.mem_ctrls2.rdQLenPdf::12                  1094                       # What read queue length does an incoming req see
system.mem_ctrls2.rdQLenPdf::13                  1103                       # What read queue length does an incoming req see
system.mem_ctrls2.rdQLenPdf::14                  1068                       # What read queue length does an incoming req see
system.mem_ctrls2.rdQLenPdf::15                  1009                       # What read queue length does an incoming req see
system.mem_ctrls2.rdQLenPdf::16                  1013                       # What read queue length does an incoming req see
system.mem_ctrls2.rdQLenPdf::17                  1023                       # What read queue length does an incoming req see
system.mem_ctrls2.rdQLenPdf::18                  1031                       # What read queue length does an incoming req see
system.mem_ctrls2.rdQLenPdf::19                   964                       # What read queue length does an incoming req see
system.mem_ctrls2.rdQLenPdf::20                   991                       # What read queue length does an incoming req see
system.mem_ctrls2.rdQLenPdf::21                   974                       # What read queue length does an incoming req see
system.mem_ctrls2.rdQLenPdf::22                   933                       # What read queue length does an incoming req see
system.mem_ctrls2.rdQLenPdf::23                   938                       # What read queue length does an incoming req see
system.mem_ctrls2.rdQLenPdf::24                   973                       # What read queue length does an incoming req see
system.mem_ctrls2.rdQLenPdf::25                  1005                       # What read queue length does an incoming req see
system.mem_ctrls2.rdQLenPdf::26                  1014                       # What read queue length does an incoming req see
system.mem_ctrls2.rdQLenPdf::27                  1108                       # What read queue length does an incoming req see
system.mem_ctrls2.rdQLenPdf::28                  1163                       # What read queue length does an incoming req see
system.mem_ctrls2.rdQLenPdf::29                  1342                       # What read queue length does an incoming req see
system.mem_ctrls2.rdQLenPdf::30                  2045                       # What read queue length does an incoming req see
system.mem_ctrls2.rdQLenPdf::31                148339                       # What read queue length does an incoming req see
system.mem_ctrls2.wrQLenPdf::0                  46717                       # What write queue length does an incoming req see
system.mem_ctrls2.wrQLenPdf::1                  48357                       # What write queue length does an incoming req see
system.mem_ctrls2.wrQLenPdf::2                  49266                       # What write queue length does an incoming req see
system.mem_ctrls2.wrQLenPdf::3                  50338                       # What write queue length does an incoming req see
system.mem_ctrls2.wrQLenPdf::4                  52065                       # What write queue length does an incoming req see
system.mem_ctrls2.wrQLenPdf::5                  16737                       # What write queue length does an incoming req see
system.mem_ctrls2.wrQLenPdf::6                  22106                       # What write queue length does an incoming req see
system.mem_ctrls2.wrQLenPdf::7                  37589                       # What write queue length does an incoming req see
system.mem_ctrls2.bytesPerActivate::samples       205897                       # Bytes accessed per row activation
system.mem_ctrls2.bytesPerActivate::mean   219.529415                       # Bytes accessed per row activation
system.mem_ctrls2.bytesPerActivate::gmean   173.904252                       # Bytes accessed per row activation
system.mem_ctrls2.bytesPerActivate::stdev   152.784130                       # Bytes accessed per row activation
system.mem_ctrls2.bytesPerActivate::0-127        51042     24.79%     24.79% # Bytes accessed per row activation
system.mem_ctrls2.bytesPerActivate::128-255        62604     30.41%     55.20% # Bytes accessed per row activation
system.mem_ctrls2.bytesPerActivate::256-383        72080     35.01%     90.20% # Bytes accessed per row activation
system.mem_ctrls2.bytesPerActivate::384-511         9674      4.70%     94.90% # Bytes accessed per row activation
system.mem_ctrls2.bytesPerActivate::512-639         5452      2.65%     97.55% # Bytes accessed per row activation
system.mem_ctrls2.bytesPerActivate::640-767         2108      1.02%     98.57% # Bytes accessed per row activation
system.mem_ctrls2.bytesPerActivate::768-895         1061      0.52%     99.09% # Bytes accessed per row activation
system.mem_ctrls2.bytesPerActivate::896-1023          770      0.37%     99.46% # Bytes accessed per row activation
system.mem_ctrls2.bytesPerActivate::1024-1151         1106      0.54%    100.00% # Bytes accessed per row activation
system.mem_ctrls2.bytesPerActivate::total       205897                       # Bytes accessed per row activation
system.mem_ctrls2.rdPerTurnAround::samples        48006                       # Reads before turning the bus around for writes
system.mem_ctrls2.rdPerTurnAround::mean      7.980148                       # Reads before turning the bus around for writes
system.mem_ctrls2.rdPerTurnAround::stdev    15.677237                       # Reads before turning the bus around for writes
system.mem_ctrls2.rdPerTurnAround::0-127        48000     99.99%     99.99% # Reads before turning the bus around for writes
system.mem_ctrls2.rdPerTurnAround::128-255            4      0.01%    100.00% # Reads before turning the bus around for writes
system.mem_ctrls2.rdPerTurnAround::1152-1279            1      0.00%    100.00% # Reads before turning the bus around for writes
system.mem_ctrls2.rdPerTurnAround::2816-2943            1      0.00%    100.00% # Reads before turning the bus around for writes
system.mem_ctrls2.rdPerTurnAround::total        48006                       # Reads before turning the bus around for writes
system.mem_ctrls2.wrPerTurnAround::samples        48006                       # Writes before turning the bus around for reads
system.mem_ctrls2.wrPerTurnAround::mean      6.731929                       # Writes before turning the bus around for reads
system.mem_ctrls2.wrPerTurnAround::gmean     6.105013                       # Writes before turning the bus around for reads
system.mem_ctrls2.wrPerTurnAround::stdev     3.562238                       # Writes before turning the bus around for reads
system.mem_ctrls2.wrPerTurnAround::4-7          38383     79.95%     79.95% # Writes before turning the bus around for reads
system.mem_ctrls2.wrPerTurnAround::8-11          1682      3.50%     83.46% # Writes before turning the bus around for reads
system.mem_ctrls2.wrPerTurnAround::12-15         5542     11.54%     95.00% # Writes before turning the bus around for reads
system.mem_ctrls2.wrPerTurnAround::16-19         2399      5.00%    100.00% # Writes before turning the bus around for reads
system.mem_ctrls2.wrPerTurnAround::total        48006                       # Writes before turning the bus around for reads
system.mem_ctrls2.totQLat                 64650744877                       # Total ticks spent queuing
system.mem_ctrls2.totMemAccLat            71833907377                       # Total ticks spent from burst creation until serviced by the DRAM
system.mem_ctrls2.totBusLat                1915510000                       # Total ticks spent in databus transfers
system.mem_ctrls2.avgQLat                   168755.96                       # Average queueing delay per DRAM burst
system.mem_ctrls2.avgBusLat                   5000.00                       # Average bus latency per DRAM burst
system.mem_ctrls2.avgMemAccLat              187505.96                       # Average memory access latency per DRAM burst
system.mem_ctrls2.avgRdBW                      159.39                       # Average DRAM read bandwidth in MiByte/s
system.mem_ctrls2.avgWrBW                      134.46                       # Average achieved write bandwidth in MiByte/s
system.mem_ctrls2.avgRdBWSys                   159.40                       # Average system read bandwidth in MiByte/s
system.mem_ctrls2.avgWrBWSys                   134.46                       # Average system write bandwidth in MiByte/s
system.mem_ctrls2.peakBW                     12800.00                       # Theoretical peak bandwidth in MiByte/s
system.mem_ctrls2.busUtil                        2.30                       # Data bus utilization in percentage
system.mem_ctrls2.busUtilRead                    1.25                       # Data bus utilization in percentage for reads
system.mem_ctrls2.busUtilWrite                   1.05                       # Data bus utilization in percentage for writes
system.mem_ctrls2.avgRdQLen                      1.42                       # Average read queue length when enqueuing
system.mem_ctrls2.avgWrQLen                      3.02                       # Average write queue length when enqueuing
system.mem_ctrls2.readRowHits                  282978                       # Number of row buffer hits during reads
system.mem_ctrls2.writeRowHits                 217389                       # Number of row buffer hits during writes
system.mem_ctrls2.readRowHitRate                73.86                       # Row buffer hit rate for reads
system.mem_ctrls2.writeRowHitRate               67.27                       # Row buffer hit rate for writes
system.mem_ctrls2.avgGap                    217788.90                       # Average gap between requests
system.mem_ctrls2.pageHitRate                   70.85                       # Row buffer hit rate, read and write combined
system.mem_ctrls2.memoryStateTime::IDLE   27139102750                       # Time in different power states
system.mem_ctrls2.memoryStateTime::REF     5136300000                       # Time in different power states
system.mem_ctrls2.memoryStateTime::PRE_PDN            0                       # Time in different power states
system.mem_ctrls2.memoryStateTime::ACT   121542239750                       # Time in different power states
system.mem_ctrls2.memoryStateTime::ACT_PDN            0                       # Time in different power states
system.mem_ctrls2.actEnergy::0              783654480                       # Energy for activate commands per rank (pJ)
system.mem_ctrls2.actEnergy::1              772760520                       # Energy for activate commands per rank (pJ)
system.mem_ctrls2.preEnergy::0              427589250                       # Energy for precharge commands per rank (pJ)
system.mem_ctrls2.preEnergy::1              421645125                       # Energy for precharge commands per rank (pJ)
system.mem_ctrls2.readEnergy::0            1501266000                       # Energy for read commands per rank (pJ)
system.mem_ctrls2.readEnergy::1            1486446000                       # Energy for read commands per rank (pJ)
system.mem_ctrls2.writeEnergy::0           1049889600                       # Energy for write commands per rank (pJ)
system.mem_ctrls2.writeEnergy::1           1043940960                       # Energy for write commands per rank (pJ)
system.mem_ctrls2.refreshEnergy::0        10046602800                       # Energy for refresh commands per rank (pJ)
system.mem_ctrls2.refreshEnergy::1        10046602800                       # Energy for refresh commands per rank (pJ)
system.mem_ctrls2.actBackEnergy::0        59662501065                       # Energy for active background per rank (pJ)
system.mem_ctrls2.actBackEnergy::1        59200403490                       # Energy for active background per rank (pJ)
system.mem_ctrls2.preBackEnergy::0        39955050000                       # Energy for precharge background per rank (pJ)
system.mem_ctrls2.preBackEnergy::1        40360398750                       # Energy for precharge background per rank (pJ)
system.mem_ctrls2.totalEnergy::0         113426553195                       # Total energy per rank (pJ)
system.mem_ctrls2.totalEnergy::1         113332197645                       # Total energy per rank (pJ)
system.mem_ctrls2.averagePower::0          737.409321                       # Core power per rank (mW)
system.mem_ctrls2.averagePower::1          736.795896                       # Core power per rank (mW)
system.mem_ctrls3.bytes_read::ruby.dir_cntrl3     24499328                       # Number of bytes read from this memory
system.mem_ctrls3.bytes_read::total          24499328                       # Number of bytes read from this memory
system.mem_ctrls3.bytes_written::ruby.dir_cntrl3     20681216                       # Number of bytes written to this memory
system.mem_ctrls3.bytes_written::total       20681216                       # Number of bytes written to this memory
system.mem_ctrls3.num_reads::ruby.dir_cntrl3       382802                       # Number of read requests responded to by this memory
system.mem_ctrls3.num_reads::total             382802                       # Number of read requests responded to by this memory
system.mem_ctrls3.num_writes::ruby.dir_cntrl3       323144                       # Number of write requests responded to by this memory
system.mem_ctrls3.num_writes::total            323144                       # Number of write requests responded to by this memory
system.mem_ctrls3.bw_read::ruby.dir_cntrl3    159268528                       # Total read bandwidth from this memory (bytes/s)
system.mem_ctrls3.bw_read::total            159268528                       # Total read bandwidth from this memory (bytes/s)
system.mem_ctrls3.bw_write::ruby.dir_cntrl3    134447232                       # Write bandwidth from this memory (bytes/s)
system.mem_ctrls3.bw_write::total           134447232                       # Write bandwidth from this memory (bytes/s)
system.mem_ctrls3.bw_total::ruby.dir_cntrl3    293715760                       # Total bandwidth to/from this memory (bytes/s)
system.mem_ctrls3.bw_total::total           293715760                       # Total bandwidth to/from this memory (bytes/s)
system.mem_ctrls3.readReqs                     382802                       # Number of read requests accepted
system.mem_ctrls3.writeReqs                    323144                       # Number of write requests accepted
system.mem_ctrls3.readBursts                   382802                       # Number of DRAM read bursts, including those serviced by the write queue
system.mem_ctrls3.writeBursts                  323144                       # Number of DRAM write bursts, including those merged in the write queue
system.mem_ctrls3.bytesReadDRAM              24498688                       # Total number of bytes read from DRAM
system.mem_ctrls3.bytesReadWrQ                    640                       # Total number of bytes read from write queue
system.mem_ctrls3.bytesWritten               20681088                       # Total number of bytes written to DRAM
system.mem_ctrls3.bytesReadSys               24499328                       # Total read bytes from the system interface side
system.mem_ctrls3.bytesWrittenSys            20681216                       # Total written bytes from the system interface side
system.mem_ctrls3.servicedByWrQ                    10                       # Number of DRAM read bursts serviced by the write queue
system.mem_ctrls3.mergedWrBursts                    0                       # Number of DRAM write bursts merged with an existing one
system.mem_ctrls3.neitherReadNorWriteReqs            0                       # Number of requests that are neither read nor write
system.mem_ctrls3.perBankRdBursts::0            23629                       # Per bank write bursts
system.mem_ctrls3.perBankRdBursts::1            24311                       # Per bank write bursts
system.mem_ctrls3.perBankRdBursts::2            23825                       # Per bank write bursts
system.mem_ctrls3.perBankRdBursts::3            24239                       # Per bank write bursts
system.mem_ctrls3.perBankRdBursts::4            23815                       # Per bank write bursts
system.mem_ctrls3.perBankRdBursts::5            24196                       # Per bank write bursts
system.mem_ctrls3.perBankRdBursts::6            24260                       # Per bank write bursts
system.mem_ctrls3.perBankRdBursts::7            24030                       # Per bank write bursts
system.mem_ctrls3.perBankRdBursts::8            23882                       # Per bank write bursts
system.mem_ctrls3.perBankRdBursts::9            24028                       # Per bank write bursts
system.mem_ctrls3.perBankRdBursts::10           23892                       # Per bank write bursts
system.mem_ctrls3.perBankRdBursts::11           24306                       # Per bank write bursts
system.mem_ctrls3.perBankRdBursts::12           23558                       # Per bank write bursts
system.mem_ctrls3.perBankRdBursts::13           23450                       # Per bank write bursts
system.mem_ctrls3.perBankRdBursts::14           23607                       # Per bank write bursts
system.mem_ctrls3.perBankRdBursts::15           23764                       # Per bank write bursts
system.mem_ctrls3.perBankWrBursts::0            20236                       # Per bank write bursts
system.mem_ctrls3.perBankWrBursts::1            20154                       # Per bank write bursts
system.mem_ctrls3.perBankWrBursts::2            20141                       # Per bank write bursts
system.mem_ctrls3.perBankWrBursts::3            20434                       # Per bank write bursts
system.mem_ctrls3.perBankWrBursts::4            20054                       # Per bank write bursts
system.mem_ctrls3.perBankWrBursts::5            20340                       # Per bank write bursts
system.mem_ctrls3.perBankWrBursts::6            20360                       # Per bank write bursts
system.mem_ctrls3.perBankWrBursts::7            20292                       # Per bank write bursts
system.mem_ctrls3.perBankWrBursts::8            20369                       # Per bank write bursts
system.mem_ctrls3.perBankWrBursts::9            20176                       # Per bank write bursts
system.mem_ctrls3.perBankWrBursts::10           20103                       # Per bank write bursts
system.mem_ctrls3.perBankWrBursts::11           20135                       # Per bank write bursts
system.mem_ctrls3.perBankWrBursts::12           19935                       # Per bank write bursts
system.mem_ctrls3.perBankWrBursts::13           20172                       # Per bank write bursts
system.mem_ctrls3.perBankWrBursts::14           20160                       # Per bank write bursts
system.mem_ctrls3.perBankWrBursts::15           20081                       # Per bank write bursts
system.mem_ctrls3.numRdRetry                   141535                       # Number of times read queue was full causing retry
system.mem_ctrls3.numWrRetry                    16596                       # Number of times write queue was full causing retry
system.mem_ctrls3.totGap                 153822913500                       # Total gap between requests
system.mem_ctrls3.readPktSize::0                    0                       # Read request sizes (log2)
system.mem_ctrls3.readPktSize::1                    0                       # Read request sizes (log2)
system.mem_ctrls3.readPktSize::2                    0                       # Read request sizes (log2)
system.mem_ctrls3.readPktSize::3                    0                       # Read request sizes (log2)
system.mem_ctrls3.readPktSize::4                    0                       # Read request sizes (log2)
system.mem_ctrls3.readPktSize::5                    0                       # Read request sizes (log2)
system.mem_ctrls3.readPktSize::6               382802                       # Read request sizes (log2)
system.mem_ctrls3.writePktSize::0                   0                       # Write request sizes (log2)
system.mem_ctrls3.writePktSize::1                   0                       # Write request sizes (log2)
system.mem_ctrls3.writePktSize::2                   0                       # Write request sizes (log2)
system.mem_ctrls3.writePktSize::3                   0                       # Write request sizes (log2)
system.mem_ctrls3.writePktSize::4                   0                       # Write request sizes (log2)
system.mem_ctrls3.writePktSize::5                   0                       # Write request sizes (log2)
system.mem_ctrls3.writePktSize::6              323144                       # Write request sizes (log2)
system.mem_ctrls3.rdQLenPdf::0                 200320                       # What read queue length does an incoming req see
system.mem_ctrls3.rdQLenPdf::1                   1481                       # What read queue length does an incoming req see
system.mem_ctrls3.rdQLenPdf::2                   1129                       # What read queue length does an incoming req see
system.mem_ctrls3.rdQLenPdf::3                   1214                       # What read queue length does an incoming req see
system.mem_ctrls3.rdQLenPdf::4                   1275                       # What read queue length does an incoming req see
system.mem_ctrls3.rdQLenPdf::5                   1377                       # What read queue length does an incoming req see
system.mem_ctrls3.rdQLenPdf::6                   1363                       # What read queue length does an incoming req see
system.mem_ctrls3.rdQLenPdf::7                   1313                       # What read queue length does an incoming req see
system.mem_ctrls3.rdQLenPdf::8                   1318                       # What read queue length does an incoming req see
system.mem_ctrls3.rdQLenPdf::9                   1212                       # What read queue length does an incoming req see
system.mem_ctrls3.rdQLenPdf::10                  1209                       # What read queue length does an incoming req see
system.mem_ctrls3.rdQLenPdf::11                  1179                       # What read queue length does an incoming req see
system.mem_ctrls3.rdQLenPdf::12                  1152                       # What read queue length does an incoming req see
system.mem_ctrls3.rdQLenPdf::13                  1118                       # What read queue length does an incoming req see
system.mem_ctrls3.rdQLenPdf::14                  1073                       # What read queue length does an incoming req see
system.mem_ctrls3.rdQLenPdf::15                  1128                       # What read queue length does an incoming req see
system.mem_ctrls3.rdQLenPdf::16                  1102                       # What read queue length does an incoming req see
system.mem_ctrls3.rdQLenPdf::17                  1064                       # What read queue length does an incoming req see
system.mem_ctrls3.rdQLenPdf::18                  1056                       # What read queue length does an incoming req see
system.mem_ctrls3.rdQLenPdf::19                  1040                       # What read queue length does an incoming req see
system.mem_ctrls3.rdQLenPdf::20                  1082                       # What read queue length does an incoming req see
system.mem_ctrls3.rdQLenPdf::21                  1018                       # What read queue length does an incoming req see
system.mem_ctrls3.rdQLenPdf::22                  1038                       # What read queue length does an incoming req see
system.mem_ctrls3.rdQLenPdf::23                  1025                       # What read queue length does an incoming req see
system.mem_ctrls3.rdQLenPdf::24                  1051                       # What read queue length does an incoming req see
[...]
system.ruby.L2Cache_Controller.ISS.L1_GETS::total            3                      
system.ruby.L2Cache_Controller.ISS.Mem_Data |       19039      8.04%      8.04% |        7098      3.00%     11.04% |        7100      3.00%     14.04% |        7053      2.98%     17.02% |        7019      2.97%     19.99% |        7009      2.96%     22.95% |        7016      2.96%     25.91% |        7010      2.96%     28.88% |        7049      2.98%     31.85% |        7051      2.98%     34.83% |        7086      2.99%     37.83% |        7008      2.96%     40.79% |        7013      2.96%     43.75% |        7013      2.96%     46.71% |        7019      2.97%     49.68% |        6979      2.95%     52.63% |        7018      2.97%     55.59% |        6997      2.96%     58.55% |        7024      2.97%     61.52% |        7006      2.96%     64.48% |        6999      2.96%     67.43% |        6989      2.95%     70.39% |        7015      2.96%     73.35% |        7002      2.96%     76.31% |        7026      2.97%     79.28% |        7027      2.97%     82.25% |        7003      2.96%     85.20% |        6981      2.95%     88.15% |        7023      2.97%     91.12% |        7005      2.96%     94.08% |        6976      2.95%     97.03% |        7035      2.97%    100.00%
system.ruby.L2Cache_Controller.ISS.Mem_Data::total       236688                      
system.ruby.L2Cache_Controller.IS.Mem_Data |         545      3.28%      3.28% |         471      2.83%      6.11% |         464      2.79%      8.91% |         465      2.80%     11.70% |         511      3.08%     14.78% |         466      2.80%     17.58% |         504      3.03%     20.62% |         528      3.18%     23.79% |         547      3.29%     27.09% |         487      2.93%     30.02% |         533      3.21%     33.23% |         566      3.41%     36.63% |         618      3.72%     40.35% |         561      3.38%     43.73% |         579      3.48%     47.21% |         523      3.15%     50.36% |         532      3.20%     53.56% |         569      3.42%     56.98% |         562      3.38%     60.37% |         510      3.07%     63.44% |         503      3.03%     66.46% |         521      3.14%     69.60% |         481      2.89%     72.49% |         468      2.82%     75.31% |         546      3.29%     78.59% |         592      3.56%     82.16% |         532      3.20%     85.36% |         479      2.88%     88.24% |         489      2.94%     91.18% |         510      3.07%     94.25% |         490      2.95%     97.20% |         465      2.80%    100.00%
system.ruby.L2Cache_Controller.IS.Mem_Data::total        16617                      
system.ruby.L2Cache_Controller.IM.L1_GETX |           3    100.00%    100.00% |           0      0.00%    100.00% |           0      0.00%    100.00% |           0      0.00%    100.00% |           0      0.00%    100.00% |           0      0.00%    100.00% |           0      0.00%    100.00% |           0      0.00%    100.00% |           0      0.00%    100.00% |           0      0.00%    100.00% |           0      0.00%    100.00% |           0      0.00%    100.00% |           0      0.00%    100.00% |           0      0.00%    100.00% |           0      0.00%    100.00% |           0      0.00%    100.00% |           0      0.00%    100.00% |           0      0.00%    100.00% |           0      0.00%    100.00% |           0      0.00%    100.00% |           0      0.00%    100.00% |           0      0.00%    100.00% |           0      0.00%    100.00% |           0      0.00%    100.00% |           0      0.00%    100.00% |           0      0.00%    100.00% |           0      0.00%    100.00% |           0      0.00%    100.00% |           0      0.00%    100.00% |           0      0.00%    100.00% |           0      0.00%    100.00% |           0      0.00%    100.00%
system.ruby.L2Cache_Controller.IM.L1_GETX::total            3                      
system.ruby.L2Cache_Controller.IM.Mem_Data |       40774      3.16%      3.16% |       40329      3.12%      6.28% |       40341      3.12%      9.40% |       40347      3.12%     12.53% |       40352      3.12%     15.65% |       40357      3.13%     18.78% |       40339      3.12%     21.90% |       40336      3.12%     25.03% |       40349      3.12%     28.15% |       40344      3.12%     31.27% |       40329      3.12%     34.40% |       40358      3.13%     37.52% |       40339      3.12%     40.65% |       40338      3.12%     43.77% |       40341      3.12%     46.89% |       40330      3.12%     50.02% |       40352      3.12%     53.14% |       40351      3.12%     56.26% |       40349      3.12%     59.39% |       40345      3.12%     62.51% |       40340      3.12%     65.64% |       40354      3.12%     68.76% |       40339      3.12%     71.89% |       40341      3.12%     75.01% |       40347      3.12%     78.13% |       40345      3.12%     81.26% |       40349      3.12%     84.38% |       40336      3.12%     87.51% |       40336      3.12%     90.63% |       40337      3.12%     93.75% |       40349      3.12%     96.88% |       40331      3.12%    100.00%
system.ruby.L2Cache_Controller.IM.Mem_Data::total      1291404                      
system.ruby.L2Cache_Controller.SS_MB.Exclusive_Unblock |           4      8.89%      8.89% |           6     13.33%     22.22% |           2      4.44%     26.67% |           6     13.33%     40.00% |           1      2.22%     42.22% |           0      0.00%     42.22% |           1      2.22%     44.44% |           0      0.00%     44.44% |           0      0.00%     44.44% |           1      2.22%     46.67% |           1      2.22%     48.89% |           0      0.00%     48.89% |           4      8.89%     57.78% |           0      0.00%     57.78% |           3      6.67%     64.44% |           0      0.00%     64.44% |           0      0.00%     64.44% |           0      0.00%     64.44% |           9     20.00%     84.44% |           0      0.00%     84.44% |           0      0.00%     84.44% |           0      0.00%     84.44% |           0      0.00%     84.44% |           0      0.00%     84.44% |           1      2.22%     86.67% |           2      4.44%     91.11% |           1      2.22%     93.33% |           1      2.22%     95.56% |           0      0.00%     95.56% |           1      2.22%     97.78% |           1      2.22%    100.00% |           0      0.00%    100.00%
system.ruby.L2Cache_Controller.SS_MB.Exclusive_Unblock::total           45                      
system.ruby.L2Cache_Controller.MT_MB.L1_PUTX |           2    100.00%    100.00% |           0      0.00%    100.00% |           0      0.00%    100.00% |           0      0.00%    100.00% |           0      0.00%    100.00% |           0      0.00%    100.00% |           0      0.00%    100.00% |           0      0.00%    100.00% |           0      0.00%    100.00% |           0      0.00%    100.00% |           0      0.00%    100.00% |           0      0.00%    100.00% |           0      0.00%    100.00% |           0      0.00%    100.00% |           0      0.00%    100.00% |           0      0.00%    100.00% |           0      0.00%    100.00% |           0      0.00%    100.00% |           0      0.00%    100.00% |           0      0.00%    100.00% |           0      0.00%    100.00% |           0      0.00%    100.00% |           0      0.00%    100.00% |           0      0.00%    100.00% |           0      0.00%    100.00% |           0      0.00%    100.00% |           0      0.00%    100.00% |           0      0.00%    100.00% |           0      0.00%    100.00% |           0      0.00%    100.00% |           0      0.00%    100.00% |           0      0.00%    100.00%
system.ruby.L2Cache_Controller.MT_MB.L1_PUTX::total            2                      
system.ruby.L2Cache_Controller.MT_MB.Exclusive_Unblock |      172887      8.47%      8.47% |       64287      3.15%     11.62% |       58776      2.88%     14.50% |       58486      2.87%     17.36% |       57826      2.83%     20.20% |       56527      2.77%     22.97% |       55032      2.70%     25.66% |       55329      2.71%     28.37% |       59015      2.89%     31.26% |       57739      2.83%     34.09% |       60670      2.97%     37.07% |       60229      2.95%     40.02% |       56882      2.79%     42.80% |       56815      2.78%     45.59% |       56474      2.77%     48.35% |       56889      2.79%     51.14% |       58887      2.88%     54.03% |       58538      2.87%     56.89% |       59906      2.93%     59.83% |       60902      2.98%     62.81% |       60927      2.98%     65.80% |       63119      3.09%     68.89% |       64350      3.15%     72.04% |       60568      2.97%     75.01% |       61021      2.99%     78.00% |       62492      3.06%     81.06% |       60819      2.98%     84.04% |       61442      3.01%     87.05% |       64116      3.14%     90.19% |       61938      3.03%     93.23% |       70050      3.43%     96.66% |       68239      3.34%    100.00%
system.ruby.L2Cache_Controller.MT_MB.Exclusive_Unblock::total      2041177                      
system.ruby.L2Cache_Controller.MT_IIB.L1_PUTX |           1    100.00%    100.00% |           0      0.00%    100.00% |           0      0.00%    100.00% |           0      0.00%    100.00% |           0      0.00%    100.00% |           0      0.00%    100.00% |           0      0.00%    100.00% |           0      0.00%    100.00% |           0      0.00%    100.00% |           0      0.00%    100.00% |           0      0.00%    100.00% |           0      0.00%    100.00% |           0      0.00%    100.00% |           0      0.00%    100.00% |           0      0.00%    100.00% |           0      0.00%    100.00% |           0      0.00%    100.00% |           0      0.00%    100.00% |           0      0.00%    100.00% |           0      0.00%    100.00% |           0      0.00%    100.00% |           0      0.00%    100.00% |           0      0.00%    100.00% |           0      0.00%    100.00% |           0      0.00%    100.00% |           0      0.00%    100.00% |           0      0.00%    100.00% |           0      0.00%    100.00% |           0      0.00%    100.00% |           0      0.00%    100.00% |           0      0.00%    100.00% |           0      0.00%    100.00%
system.ruby.L2Cache_Controller.MT_IIB.L1_PUTX::total            1                      
system.ruby.L2Cache_Controller.MT_IIB.WB_Data |           0      0.00%      0.00% |           0      0.00%      0.00% |           0      0.00%      0.00% |           0      0.00%      0.00% |           0      0.00%      0.00% |           1     50.00%     50.00% |           0      0.00%     50.00% |           0      0.00%     50.00% |           0      0.00%     50.00% |           0      0.00%     50.00% |           0      0.00%     50.00% |           0      0.00%     50.00% |           0      0.00%     50.00% |           0      0.00%     50.00% |           0      0.00%     50.00% |           0      0.00%     50.00% |           0      0.00%     50.00% |           0      0.00%     50.00% |           0      0.00%     50.00% |           0      0.00%     50.00% |           0      0.00%     50.00% |           0      0.00%     50.00% |           0      0.00%     50.00% |           0      0.00%     50.00% |           0      0.00%     50.00% |           0      0.00%     50.00% |           0      0.00%     50.00% |           0      0.00%     50.00% |           1     50.00%    100.00% |           0      0.00%    100.00% |           0      0.00%    100.00% |           0      0.00%    100.00%
system.ruby.L2Cache_Controller.MT_IIB.WB_Data::total            2                      
system.ruby.L2Cache_Controller.MT_IIB.WB_Data_clean |          20    100.00%    100.00% |           0      0.00%    100.00% |           0      0.00%    100.00% |           0      0.00%    100.00% |           0      0.00%    100.00% |           0      0.00%    100.00% |           0      0.00%    100.00% |           0      0.00%    100.00% |           0      0.00%    100.00% |           0      0.00%    100.00% |           0      0.00%    100.00% |           0      0.00%    100.00% |           0      0.00%    100.00% |           0      0.00%    100.00% |           0      0.00%    100.00% |           0      0.00%    100.00% |           0      0.00%    100.00% |           0      0.00%    100.00% |           0      0.00%    100.00% |           0      0.00%    100.00% |           0      0.00%    100.00% |           0      0.00%    100.00% |           0      0.00%    100.00% |           0      0.00%    100.00% |           0      0.00%    100.00% |           0      0.00%    100.00% |           0      0.00%    100.00% |           0      0.00%    100.00% |           0      0.00%    100.00% |           0      0.00%    100.00% |           0      0.00%    100.00% |           0      0.00%    100.00%
system.ruby.L2Cache_Controller.MT_IIB.WB_Data_clean::total           20                      
system.ruby.L2Cache_Controller.MT_SB.Unblock |          20     90.91%     90.91% |           0      0.00%     90.91% |           0      0.00%     90.91% |           0      0.00%     90.91% |           0      0.00%     90.91% |           1      4.55%     95.45% |           0      0.00%     95.45% |           0      0.00%     95.45% |           0      0.00%     95.45% |           0      0.00%     95.45% |           0      0.00%     95.45% |           0      0.00%     95.45% |           0      0.00%     95.45% |           0      0.00%     95.45% |           0      0.00%     95.45% |           0      0.00%     95.45% |           0      0.00%     95.45% |           0      0.00%     95.45% |           0      0.00%     95.45% |           0      0.00%     95.45% |           0      0.00%     95.45% |           0      0.00%     95.45% |           0      0.00%     95.45% |           0      0.00%     95.45% |           0      0.00%     95.45% |           0      0.00%     95.45% |           0      0.00%     95.45% |           0      0.00%     95.45% |           1      4.55%    100.00% |           0      0.00%    100.00% |           0      0.00%    100.00% |           0      0.00%    100.00%
system.ruby.L2Cache_Controller.MT_SB.Unblock::total           22                      
system.ruby.SimicsNetworkPortInterface_Controller.MessageSend |      135900     21.91%     21.91% |      310192     50.00%     71.91% |       11187      1.80%     73.71% |       11543      1.86%     75.57% |       11081      1.79%     77.36% |       11680      1.88%     79.24% |       11076      1.79%     81.02% |       11699      1.89%     82.91% |       10489      1.69%     84.60% |       10692      1.72%     86.32% |       10373      1.67%     88.00% |       10836      1.75%     89.74% |       11179      1.80%     91.54% |       10577      1.70%     93.25% |       10031      1.62%     94.87% |       10286      1.66%     96.52% |       10593      1.71%     98.23% |       10970      1.77%    100.00% |           0      0.00%    100.00% |           0      0.00%    100.00% |           0      0.00%    100.00% |           0      0.00%    100.00% |           0      0.00%    100.00% |           0      0.00%    100.00% |           0      0.00%    100.00% |           0      0.00%    100.00% |           0      0.00%    100.00% |           0      0.00%    100.00% |           0      0.00%    100.00% |           0      0.00%    100.00% |           0      0.00%    100.00% |           0      0.00%    100.00%
system.ruby.SimicsNetworkPortInterface_Controller.MessageSend::total       620384                      
system.ruby.SimicsNetworkPortInterface_Controller.MessageRecv |      135900     21.91%     21.91% |      310192     50.00%     71.91% |       11187      1.80%     73.71% |       11543      1.86%     75.57% |       11081      1.79%     77.36% |       11680      1.88%     79.24% |       11076      1.79%     81.02% |       11699      1.89%     82.91% |       10489      1.69%     84.60% |       10692      1.72%     86.32% |       10373      1.67%     88.00% |       10836      1.75%     89.74% |       11179      1.80%     91.54% |       10577      1.70%     93.25% |       10031      1.62%     94.87% |       10286      1.66%     96.52% |       10593      1.71%     98.23% |       10970      1.77%    100.00% |           0      0.00%    100.00% |           0      0.00%    100.00% |           0      0.00%    100.00% |           0      0.00%    100.00% |           0      0.00%    100.00% |           0      0.00%    100.00% |           0      0.00%    100.00% |           0      0.00%    100.00% |           0      0.00%    100.00% |           0      0.00%    100.00% |           0      0.00%    100.00% |           0      0.00%    100.00% |           0      0.00%    100.00% |           0      0.00%    100.00%
system.ruby.SimicsNetworkPortInterface_Controller.MessageRecv::total       620384                      
system.ruby.SimicsNetworkPortInterface_Controller.A.MessageSend |      135900     21.91%     21.91% |      310192     50.00%     71.91% |       11187      1.80%     73.71% |       11543      1.86%     75.57% |       11081      1.79%     77.36% |       11680      1.88%     79.24% |       11076      1.79%     81.02% |       11699      1.89%     82.91% |       10489      1.69%     84.60% |       10692      1.72%     86.32% |       10373      1.67%     88.00% |       10836      1.75%     89.74% |       11179      1.80%     91.54% |       10577      1.70%     93.25% |       10031      1.62%     94.87% |       10286      1.66%     96.52% |       10593      1.71%     98.23% |       10970      1.77%    100.00% |           0      0.00%    100.00% |           0      0.00%    100.00% |           0      0.00%    100.00% |           0      0.00%    100.00% |           0      0.00%    100.00% |           0      0.00%    100.00% |           0      0.00%    100.00% |           0      0.00%    100.00% |           0      0.00%    100.00% |           0      0.00%    100.00% |           0      0.00%    100.00% |           0      0.00%    100.00% |           0      0.00%    100.00% |           0      0.00%    100.00%
system.ruby.SimicsNetworkPortInterface_Controller.A.MessageSend::total       620384                      
system.ruby.SimicsNetworkPortInterface_Controller.A.MessageRecv |      135900     21.91%     21.91% |      310192     50.00%     71.91% |       11187      1.80%     73.71% |       11543      1.86%     75.57% |       11081      1.79%     77.36% |       11680      1.88%     79.24% |       11076      1.79%     81.02% |       11699      1.89%     82.91% |       10489      1.69%     84.60% |       10692      1.72%     86.32% |       10373      1.67%     88.00% |       10836      1.75%     89.74% |       11179      1.80%     91.54% |       10577      1.70%     93.25% |       10031      1.62%     94.87% |       10286      1.66%     96.52% |       10593      1.71%     98.23% |       10970      1.77%    100.00% |           0      0.00%    100.00% |           0      0.00%    100.00% |           0      0.00%    100.00% |           0      0.00%    100.00% |           0      0.00%    100.00% |           0      0.00%    100.00% |           0      0.00%    100.00% |           0      0.00%    100.00% |           0      0.00%    100.00% |           0      0.00%    100.00% |           0      0.00%    100.00% |           0      0.00%    100.00% |           0      0.00%    100.00% |           0      0.00%    100.00%
system.ruby.SimicsNetworkPortInterface_Controller.A.MessageRecv::total       620384                      
system.switch_cpus.kern.inst.arm                    0                       # number of arm instructions executed
system.switch_cpus.kern.inst.quiesce                0                       # number of quiesce instructions executed

---------- End Simulation Statistics   ----------
