
---------- Begin Simulation Statistics ----------
sim_seconds                                  0.037923                       # Number of seconds simulated
sim_ticks                                 37922587000                       # Number of ticks simulated
final_tick                               5214090665500                       # Number of ticks from beginning of simulation (restored from checkpoints and never reset)
sim_freq                                 1000000000000                       # Frequency of simulated ticks
host_inst_rate                                  15391                       # Simulator instruction rate (inst/s)
host_op_rate                                    27699                       # Simulator op (including micro ops) rate (op/s)
host_tick_rate                               24143922                       # Simulator tick rate (ticks/s)
host_mem_usage                                4741604                       # Number of bytes of host memory used
host_seconds                                  1570.69                       # Real time elapsed on the host
sim_insts                                    24174052                       # Number of instructions simulated
sim_ops                                      43507204                       # Number of ops (including micro ops) simulated
system.voltage_domain.voltage                       1                       # Voltage in Volts
system.clk_domain.clock                           500                       # Clock period in ticks
system.mem_ctrls0.bytes_read::ruby.dir_cntrl0      4966464                       # Number of bytes read from this memory
system.mem_ctrls0.bytes_read::total           4966464                       # Number of bytes read from this memory
system.mem_ctrls0.bytes_written::ruby.dir_cntrl0      3963456                       # Number of bytes written to this memory
system.mem_ctrls0.bytes_written::total        3963456                       # Number of bytes written to this memory
system.mem_ctrls0.num_reads::ruby.dir_cntrl0        77601                       # Number of read requests responded to by this memory
system.mem_ctrls0.num_reads::total              77601                       # Number of read requests responded to by this memory
system.mem_ctrls0.num_writes::ruby.dir_cntrl0        61929                       # Number of write requests responded to by this memory
system.mem_ctrls0.num_writes::total             61929                       # Number of write requests responded to by this memory
system.mem_ctrls0.bw_read::ruby.dir_cntrl0    130963217                       # Total read bandwidth from this memory (bytes/s)
system.mem_ctrls0.bw_read::total            130963217                       # Total read bandwidth from this memory (bytes/s)
system.mem_ctrls0.bw_write::ruby.dir_cntrl0    104514389                       # Write bandwidth from this memory (bytes/s)
system.mem_ctrls0.bw_write::total           104514389                       # Write bandwidth from this memory (bytes/s)
system.mem_ctrls0.bw_total::ruby.dir_cntrl0    235477606                       # Total bandwidth to/from this memory (bytes/s)
system.mem_ctrls0.bw_total::total           235477606                       # Total bandwidth to/from this memory (bytes/s)
system.mem_ctrls0.readReqs                      77601                       # Number of read requests accepted
system.mem_ctrls0.writeReqs                     61929                       # Number of write requests accepted
system.mem_ctrls0.readBursts                    77601                       # Number of DRAM read bursts, including those serviced by the write queue
system.mem_ctrls0.writeBursts                   61929                       # Number of DRAM write bursts, including those merged in the write queue
system.mem_ctrls0.bytesReadDRAM               4965120                       # Total number of bytes read from DRAM
system.mem_ctrls0.bytesReadWrQ                   1344                       # Total number of bytes read from write queue
system.mem_ctrls0.bytesWritten                3963328                       # Total number of bytes written to DRAM
system.mem_ctrls0.bytesReadSys                4966464                       # Total read bytes from the system interface side
system.mem_ctrls0.bytesWrittenSys             3963456                       # Total written bytes from the system interface side
system.mem_ctrls0.servicedByWrQ                    21                       # Number of DRAM read bursts serviced by the write queue
system.mem_ctrls0.mergedWrBursts                    0                       # Number of DRAM write bursts merged with an existing one
system.mem_ctrls0.neitherReadNorWriteReqs            0                       # Number of requests that are neither read nor write
system.mem_ctrls0.perBankRdBursts::0             4392                       # Per bank write bursts
system.mem_ctrls0.perBankRdBursts::1             4834                       # Per bank write bursts
system.mem_ctrls0.perBankRdBursts::2             4551                       # Per bank write bursts
system.mem_ctrls0.perBankRdBursts::3             4966                       # Per bank write bursts
system.mem_ctrls0.perBankRdBursts::4             4846                       # Per bank write bursts
system.mem_ctrls0.perBankRdBursts::5             5349                       # Per bank write bursts
system.mem_ctrls0.perBankRdBursts::6             4947                       # Per bank write bursts
system.mem_ctrls0.perBankRdBursts::7             5217                       # Per bank write bursts
system.mem_ctrls0.perBankRdBursts::8             5039                       # Per bank write bursts
system.mem_ctrls0.perBankRdBursts::9             5200                       # Per bank write bursts
system.mem_ctrls0.perBankRdBursts::10            4619                       # Per bank write bursts
system.mem_ctrls0.perBankRdBursts::11            4793                       # Per bank write bursts
system.mem_ctrls0.perBankRdBursts::12            4588                       # Per bank write bursts
system.mem_ctrls0.perBankRdBursts::13            4628                       # Per bank write bursts
system.mem_ctrls0.perBankRdBursts::14            4796                       # Per bank write bursts
system.mem_ctrls0.perBankRdBursts::15            4815                       # Per bank write bursts
system.mem_ctrls0.perBankWrBursts::0             3617                       # Per bank write bursts
system.mem_ctrls0.perBankWrBursts::1             3562                       # Per bank write bursts
system.mem_ctrls0.perBankWrBursts::2             3652                       # Per bank write bursts
system.mem_ctrls0.perBankWrBursts::3             3794                       # Per bank write bursts
system.mem_ctrls0.perBankWrBursts::4             3858                       # Per bank write bursts
system.mem_ctrls0.perBankWrBursts::5             4189                       # Per bank write bursts
system.mem_ctrls0.perBankWrBursts::6             3927                       # Per bank write bursts
system.mem_ctrls0.perBankWrBursts::7             4185                       # Per bank write bursts
system.mem_ctrls0.perBankWrBursts::8             4055                       # Per bank write bursts
system.mem_ctrls0.perBankWrBursts::9             4133                       # Per bank write bursts
system.mem_ctrls0.perBankWrBursts::10            3697                       # Per bank write bursts
system.mem_ctrls0.perBankWrBursts::11            3637                       # Per bank write bursts
system.mem_ctrls0.perBankWrBursts::12            3789                       # Per bank write bursts
system.mem_ctrls0.perBankWrBursts::13            3900                       # Per bank write bursts
system.mem_ctrls0.perBankWrBursts::14            4026                       # Per bank write bursts
system.mem_ctrls0.perBankWrBursts::15            3906                       # Per bank write bursts
system.mem_ctrls0.numRdRetry                        1                       # Number of times read queue was full causing retry
system.mem_ctrls0.numWrRetry                      139                       # Number of times write queue was full causing retry
system.mem_ctrls0.totGap                  37922096000                       # Total gap between requests
system.mem_ctrls0.readPktSize::0                    0                       # Read request sizes (log2)
system.mem_ctrls0.readPktSize::1                    0                       # Read request sizes (log2)
system.mem_ctrls0.readPktSize::2                    0                       # Read request sizes (log2)
system.mem_ctrls0.readPktSize::3                    0                       # Read request sizes (log2)
system.mem_ctrls0.readPktSize::4                    0                       # Read request sizes (log2)
system.mem_ctrls0.readPktSize::5                    0                       # Read request sizes (log2)
system.mem_ctrls0.readPktSize::6                77601                       # Read request sizes (log2)
system.mem_ctrls0.writePktSize::0                   0                       # Write request sizes (log2)
system.mem_ctrls0.writePktSize::1                   0                       # Write request sizes (log2)
system.mem_ctrls0.writePktSize::2                   0                       # Write request sizes (log2)
system.mem_ctrls0.writePktSize::3                   0                       # Write request sizes (log2)
system.mem_ctrls0.writePktSize::4                   0                       # Write request sizes (log2)
system.mem_ctrls0.writePktSize::5                   0                       # Write request sizes (log2)
system.mem_ctrls0.writePktSize::6               61929                       # Write request sizes (log2)
system.mem_ctrls0.rdQLenPdf::0                  59730                       # What read queue length does an incoming req see
system.mem_ctrls0.rdQLenPdf::1                  10702                       # What read queue length does an incoming req see
system.mem_ctrls0.rdQLenPdf::2                   3539                       # What read queue length does an incoming req see
system.mem_ctrls0.rdQLenPdf::3                   1434                       # What read queue length does an incoming req see
system.mem_ctrls0.rdQLenPdf::4                    769                       # What read queue length does an incoming req see
system.mem_ctrls0.rdQLenPdf::5                    431                       # What read queue length does an incoming req see
system.mem_ctrls0.rdQLenPdf::6                    268                       # What read queue length does an incoming req see
system.mem_ctrls0.rdQLenPdf::7                    168                       # What read queue length does an incoming req see
system.mem_ctrls0.rdQLenPdf::8                    110                       # What read queue length does an incoming req see
system.mem_ctrls0.rdQLenPdf::9                     66                       # What read queue length does an incoming req see
system.mem_ctrls0.rdQLenPdf::10                    54                       # What read queue length does an incoming req see
system.mem_ctrls0.rdQLenPdf::11                    51                       # What read queue length does an incoming req see
system.mem_ctrls0.rdQLenPdf::12                    38                       # What read queue length does an incoming req see
system.mem_ctrls0.rdQLenPdf::13                    37                       # What read queue length does an incoming req see
system.mem_ctrls0.rdQLenPdf::14                    31                       # What read queue length does an incoming req see
system.mem_ctrls0.rdQLenPdf::15                    26                       # What read queue length does an incoming req see
system.mem_ctrls0.rdQLenPdf::16                    23                       # What read queue length does an incoming req see
system.mem_ctrls0.rdQLenPdf::17                    23                       # What read queue length does an incoming req see
system.mem_ctrls0.rdQLenPdf::18                    20                       # What read queue length does an incoming req see
system.mem_ctrls0.rdQLenPdf::19                    11                       # What read queue length does an incoming req see
system.mem_ctrls0.rdQLenPdf::20                     9                       # What read queue length does an incoming req see
system.mem_ctrls0.rdQLenPdf::21                     9                       # What read queue length does an incoming req see
system.mem_ctrls0.rdQLenPdf::22                     8                       # What read queue length does an incoming req see
system.mem_ctrls0.rdQLenPdf::23                     5                       # What read queue length does an incoming req see
system.mem_ctrls0.rdQLenPdf::24                     7                       # What read queue length does an incoming req see
system.mem_ctrls0.rdQLenPdf::25                     4                       # What read queue length does an incoming req see
system.mem_ctrls0.rdQLenPdf::26                     1                       # What read queue length does an incoming req see
system.mem_ctrls0.rdQLenPdf::27                     1                       # What read queue length does an incoming req see
system.mem_ctrls0.rdQLenPdf::28                     1                       # What read queue length does an incoming req see
system.mem_ctrls0.rdQLenPdf::29                     1                       # What read queue length does an incoming req see
system.mem_ctrls0.rdQLenPdf::30                     1                       # What read queue length does an incoming req see
system.mem_ctrls0.rdQLenPdf::31                     2                       # What read queue length does an incoming req see
system.mem_ctrls0.wrQLenPdf::0                  11515                       # What write queue length does an incoming req see
system.mem_ctrls0.wrQLenPdf::1                  12626                       # What write queue length does an incoming req see
system.mem_ctrls0.wrQLenPdf::2                  12657                       # What write queue length does an incoming req see
system.mem_ctrls0.wrQLenPdf::3                  12336                       # What write queue length does an incoming req see
system.mem_ctrls0.wrQLenPdf::4                  11946                       # What write queue length does an incoming req see
system.mem_ctrls0.wrQLenPdf::5                    425                       # What write queue length does an incoming req see
system.mem_ctrls0.wrQLenPdf::6                    184                       # What write queue length does an incoming req see
system.mem_ctrls0.wrQLenPdf::7                    240                       # What write queue length does an incoming req see
system.mem_ctrls0.bytesPerActivate::samples        52803                       # Bytes accessed per row activation
system.mem_ctrls0.bytesPerActivate::mean   169.069182                       # Bytes accessed per row activation
system.mem_ctrls0.bytesPerActivate::gmean   119.843707                       # Bytes accessed per row activation
system.mem_ctrls0.bytesPerActivate::stdev   176.377171                       # Bytes accessed per row activation
system.mem_ctrls0.bytesPerActivate::0-127        27234     51.58%     51.58% # Bytes accessed per row activation
system.mem_ctrls0.bytesPerActivate::128-255        12961     24.55%     76.12% # Bytes accessed per row activation
system.mem_ctrls0.bytesPerActivate::256-383         7652     14.49%     90.61% # Bytes accessed per row activation
system.mem_ctrls0.bytesPerActivate::384-511         1881      3.56%     94.18% # Bytes accessed per row activation
system.mem_ctrls0.bytesPerActivate::512-639         1137      2.15%     96.33% # Bytes accessed per row activation
system.mem_ctrls0.bytesPerActivate::640-767          598      1.13%     97.46% # Bytes accessed per row activation
system.mem_ctrls0.bytesPerActivate::768-895          417      0.79%     98.25% # Bytes accessed per row activation
system.mem_ctrls0.bytesPerActivate::896-1023          337      0.64%     98.89% # Bytes accessed per row activation
system.mem_ctrls0.bytesPerActivate::1024-1151          586      1.11%    100.00% # Bytes accessed per row activation
system.mem_ctrls0.bytesPerActivate::total        52803                       # Bytes accessed per row activation
system.mem_ctrls0.rdPerTurnAround::samples        11532                       # Reads before turning the bus around for writes
system.mem_ctrls0.rdPerTurnAround::mean      6.726934                       # Reads before turning the bus around for writes
system.mem_ctrls0.rdPerTurnAround::stdev    37.594409                       # Reads before turning the bus around for writes
system.mem_ctrls0.rdPerTurnAround::0-127        11526     99.95%     99.95% # Reads before turning the bus around for writes
system.mem_ctrls0.rdPerTurnAround::128-255            5      0.04%     99.99% # Reads before turning the bus around for writes
system.mem_ctrls0.rdPerTurnAround::3968-4095            1      0.01%    100.00% # Reads before turning the bus around for writes
system.mem_ctrls0.rdPerTurnAround::total        11532                       # Reads before turning the bus around for writes
system.mem_ctrls0.wrPerTurnAround::samples        11532                       # Writes before turning the bus around for reads
system.mem_ctrls0.wrPerTurnAround::mean      5.370014                       # Writes before turning the bus around for reads
system.mem_ctrls0.wrPerTurnAround::gmean     5.292981                       # Writes before turning the bus around for reads
system.mem_ctrls0.wrPerTurnAround::stdev     1.130699                       # Writes before turning the bus around for reads
system.mem_ctrls0.wrPerTurnAround::4-7          11015     95.52%     95.52% # Writes before turning the bus around for reads
system.mem_ctrls0.wrPerTurnAround::8-11           428      3.71%     99.23% # Writes before turning the bus around for reads
system.mem_ctrls0.wrPerTurnAround::12-15           67      0.58%     99.81% # Writes before turning the bus around for reads
system.mem_ctrls0.wrPerTurnAround::16-19           22      0.19%    100.00% # Writes before turning the bus around for reads
system.mem_ctrls0.wrPerTurnAround::total        11532                       # Writes before turning the bus around for reads
system.mem_ctrls0.totQLat                  1906074136                       # Total ticks spent queuing
system.mem_ctrls0.totMemAccLat             3360699136                       # Total ticks spent from burst creation until serviced by the DRAM
system.mem_ctrls0.totBusLat                 387900000                       # Total ticks spent in databus transfers
system.mem_ctrls0.avgQLat                    24569.14                       # Average queueing delay per DRAM burst
system.mem_ctrls0.avgBusLat                   5000.00                       # Average bus latency per DRAM burst
system.mem_ctrls0.avgMemAccLat               43319.14                       # Average memory access latency per DRAM burst
system.mem_ctrls0.avgRdBW                      130.93                       # Average DRAM read bandwidth in MiByte/s
system.mem_ctrls0.avgWrBW                      104.51                       # Average achieved write bandwidth in MiByte/s
system.mem_ctrls0.avgRdBWSys                   130.96                       # Average system read bandwidth in MiByte/s
system.mem_ctrls0.avgWrBWSys                   104.51                       # Average system write bandwidth in MiByte/s
system.mem_ctrls0.peakBW                     12800.00                       # Theoretical peak bandwidth in MiByte/s
system.mem_ctrls0.busUtil                        1.84                       # Data bus utilization in percentage
system.mem_ctrls0.busUtilRead                    1.02                       # Data bus utilization in percentage for reads
system.mem_ctrls0.busUtilWrite                   0.82                       # Data bus utilization in percentage for writes
system.mem_ctrls0.avgRdQLen                      1.10                       # Average read queue length when enqueuing
system.mem_ctrls0.avgWrQLen                      2.85                       # Average write queue length when enqueuing
system.mem_ctrls0.readRowHits                   53379                       # Number of row buffer hits during reads
system.mem_ctrls0.writeRowHits                  33314                       # Number of row buffer hits during writes
system.mem_ctrls0.readRowHitRate                68.81                       # Row buffer hit rate for reads
system.mem_ctrls0.writeRowHitRate               53.79                       # Row buffer hit rate for writes
system.mem_ctrls0.avgGap                    271784.53                       # Average gap between requests
system.mem_ctrls0.pageHitRate                   62.14                       # Row buffer hit rate, read and write combined
system.mem_ctrls0.memoryStateTime::IDLE    8592801500                       # Time in different power states
system.mem_ctrls0.memoryStateTime::REF     1266200000                       # Time in different power states
system.mem_ctrls0.memoryStateTime::PRE_PDN            0                       # Time in different power states
system.mem_ctrls0.memoryStateTime::ACT    28060458000                       # Time in different power states
system.mem_ctrls0.memoryStateTime::ACT_PDN            0                       # Time in different power states
system.mem_ctrls0.actEnergy::0              198828000                       # Energy for activate commands per rank (pJ)
system.mem_ctrls0.actEnergy::1              200302200                       # Energy for activate commands per rank (pJ)
system.mem_ctrls0.preEnergy::0              108487500                       # Energy for precharge commands per rank (pJ)
system.mem_ctrls0.preEnergy::1              109291875                       # Energy for precharge commands per rank (pJ)
system.mem_ctrls0.readEnergy::0             304925400                       # Energy for read commands per rank (pJ)
system.mem_ctrls0.readEnergy::1             300066000                       # Energy for read commands per rank (pJ)
system.mem_ctrls0.writeEnergy::0            199467360                       # Energy for write commands per rank (pJ)
system.mem_ctrls0.writeEnergy::1            201754800                       # Energy for write commands per rank (pJ)
system.mem_ctrls0.refreshEnergy::0         2476687200                       # Energy for refresh commands per rank (pJ)
system.mem_ctrls0.refreshEnergy::1         2476687200                       # Energy for refresh commands per rank (pJ)
system.mem_ctrls0.actBackEnergy::0        15190697790                       # Energy for active background per rank (pJ)
system.mem_ctrls0.actBackEnergy::1        14744476710                       # Energy for active background per rank (pJ)
system.mem_ctrls0.preBackEnergy::0         9426405000                       # Energy for precharge background per rank (pJ)
system.mem_ctrls0.preBackEnergy::1         9817827000                       # Energy for precharge background per rank (pJ)
system.mem_ctrls0.totalEnergy::0          27905498250                       # Total energy per rank (pJ)
system.mem_ctrls0.totalEnergy::1          27850405785                       # Total energy per rank (pJ)
system.mem_ctrls0.averagePower::0          735.918123                       # Core power per rank (mW)
system.mem_ctrls0.averagePower::1          734.465236                       # Core power per rank (mW)
system.mem_ctrls1.bytes_read::ruby.dir_cntrl1      4880256                       # Number of bytes read from this memory
system.mem_ctrls1.bytes_read::total           4880256                       # Number of bytes read from this memory
system.mem_ctrls1.bytes_written::ruby.dir_cntrl1      3884928                       # Number of bytes written to this memory
system.mem_ctrls1.bytes_written::total        3884928                       # Number of bytes written to this memory
system.mem_ctrls1.num_reads::ruby.dir_cntrl1        76254                       # Number of read requests responded to by this memory
system.mem_ctrls1.num_reads::total              76254                       # Number of read requests responded to by this memory
system.mem_ctrls1.num_writes::ruby.dir_cntrl1        60702                       # Number of write requests responded to by this memory
system.mem_ctrls1.num_writes::total             60702                       # Number of write requests responded to by this memory
system.mem_ctrls1.bw_read::ruby.dir_cntrl1    128689955                       # Total read bandwidth from this memory (bytes/s)
system.mem_ctrls1.bw_read::total            128689955                       # Total read bandwidth from this memory (bytes/s)
system.mem_ctrls1.bw_write::ruby.dir_cntrl1    102443644                       # Write bandwidth from this memory (bytes/s)
system.mem_ctrls1.bw_write::total           102443644                       # Write bandwidth from this memory (bytes/s)
system.mem_ctrls1.bw_total::ruby.dir_cntrl1    231133599                       # Total bandwidth to/from this memory (bytes/s)
system.mem_ctrls1.bw_total::total           231133599                       # Total bandwidth to/from this memory (bytes/s)
system.mem_ctrls1.readReqs                      76254                       # Number of read requests accepted
system.mem_ctrls1.writeReqs                     60702                       # Number of write requests accepted
system.mem_ctrls1.readBursts                    76254                       # Number of DRAM read bursts, including those serviced by the write queue
system.mem_ctrls1.writeBursts                   60702                       # Number of DRAM write bursts, including those merged in the write queue
system.mem_ctrls1.bytesReadDRAM               4879488                       # Total number of bytes read from DRAM
system.mem_ctrls1.bytesReadWrQ                    768                       # Total number of bytes read from write queue
system.mem_ctrls1.bytesWritten                3884864                       # Total number of bytes written to DRAM
system.mem_ctrls1.bytesReadSys                4880256                       # Total read bytes from the system interface side
system.mem_ctrls1.bytesWrittenSys             3884928                       # Total written bytes from the system interface side
system.mem_ctrls1.servicedByWrQ                    12                       # Number of DRAM read bursts serviced by the write queue
system.mem_ctrls1.mergedWrBursts                    0                       # Number of DRAM write bursts merged with an existing one
system.mem_ctrls1.neitherReadNorWriteReqs            0                       # Number of requests that are neither read nor write
system.mem_ctrls1.perBankRdBursts::0             4326                       # Per bank write bursts
system.mem_ctrls1.perBankRdBursts::1             4743                       # Per bank write bursts
system.mem_ctrls1.perBankRdBursts::2             4459                       # Per bank write bursts
system.mem_ctrls1.perBankRdBursts::3             4894                       # Per bank write bursts
system.mem_ctrls1.perBankRdBursts::4             4780                       # Per bank write bursts
system.mem_ctrls1.perBankRdBursts::5             5297                       # Per bank write bursts
system.mem_ctrls1.perBankRdBursts::6             4880                       # Per bank write bursts
system.mem_ctrls1.perBankRdBursts::7             5161                       # Per bank write bursts
system.mem_ctrls1.perBankRdBursts::8             4936                       # Per bank write bursts
system.mem_ctrls1.perBankRdBursts::9             5087                       # Per bank write bursts
system.mem_ctrls1.perBankRdBursts::10            4516                       # Per bank write bursts
system.mem_ctrls1.perBankRdBursts::11            4727                       # Per bank write bursts
system.mem_ctrls1.perBankRdBursts::12            4493                       # Per bank write bursts
system.mem_ctrls1.perBankRdBursts::13            4569                       # Per bank write bursts
system.mem_ctrls1.perBankRdBursts::14            4636                       # Per bank write bursts
system.mem_ctrls1.perBankRdBursts::15            4738                       # Per bank write bursts
system.mem_ctrls1.perBankWrBursts::0             3554                       # Per bank write bursts
system.mem_ctrls1.perBankWrBursts::1             3503                       # Per bank write bursts
system.mem_ctrls1.perBankWrBursts::2             3578                       # Per bank write bursts
system.mem_ctrls1.perBankWrBursts::3             3743                       # Per bank write bursts
system.mem_ctrls1.perBankWrBursts::4             3792                       # Per bank write bursts
system.mem_ctrls1.perBankWrBursts::5             4123                       # Per bank write bursts
system.mem_ctrls1.perBankWrBursts::6             3850                       # Per bank write bursts
system.mem_ctrls1.perBankWrBursts::7             4100                       # Per bank write bursts
system.mem_ctrls1.perBankWrBursts::8             3971                       # Per bank write bursts
system.mem_ctrls1.perBankWrBursts::9             4035                       # Per bank write bursts
system.mem_ctrls1.perBankWrBursts::10            3610                       # Per bank write bursts
system.mem_ctrls1.perBankWrBursts::11            3570                       # Per bank write bursts
system.mem_ctrls1.perBankWrBursts::12            3716                       # Per bank write bursts
system.mem_ctrls1.perBankWrBursts::13            3824                       # Per bank write bursts
system.mem_ctrls1.perBankWrBursts::14            3897                       # Per bank write bursts
system.mem_ctrls1.perBankWrBursts::15            3835                       # Per bank write bursts
system.mem_ctrls1.numRdRetry                        3                       # Number of times read queue was full causing retry
system.mem_ctrls1.numWrRetry                      158                       # Number of times write queue was full causing retry
system.mem_ctrls1.totGap                  37921858500                       # Total gap between requests
system.mem_ctrls1.readPktSize::0                    0                       # Read request sizes (log2)
system.mem_ctrls1.readPktSize::1                    0                       # Read request sizes (log2)
system.mem_ctrls1.readPktSize::2                    0                       # Read request sizes (log2)
system.mem_ctrls1.readPktSize::3                    0                       # Read request sizes (log2)
system.mem_ctrls1.readPktSize::4                    0                       # Read request sizes (log2)
system.mem_ctrls1.readPktSize::5                    0                       # Read request sizes (log2)
system.mem_ctrls1.readPktSize::6                76254                       # Read request sizes (log2)
system.mem_ctrls1.writePktSize::0                   0                       # Write request sizes (log2)
system.mem_ctrls1.writePktSize::1                   0                       # Write request sizes (log2)
system.mem_ctrls1.writePktSize::2                   0                       # Write request sizes (log2)
system.mem_ctrls1.writePktSize::3                   0                       # Write request sizes (log2)
system.mem_ctrls1.writePktSize::4                   0                       # Write request sizes (log2)
system.mem_ctrls1.writePktSize::5                   0                       # Write request sizes (log2)
system.mem_ctrls1.writePktSize::6               60702                       # Write request sizes (log2)
system.mem_ctrls1.rdQLenPdf::0                  59268                       # What read queue length does an incoming req see
system.mem_ctrls1.rdQLenPdf::1                  10107                       # What read queue length does an incoming req see
system.mem_ctrls1.rdQLenPdf::2                   3276                       # What read queue length does an incoming req see
system.mem_ctrls1.rdQLenPdf::3                   1440                       # What read queue length does an incoming req see
system.mem_ctrls1.rdQLenPdf::4                    760                       # What read queue length does an incoming req see
system.mem_ctrls1.rdQLenPdf::5                    441                       # What read queue length does an incoming req see
system.mem_ctrls1.rdQLenPdf::6                    289                       # What read queue length does an incoming req see
system.mem_ctrls1.rdQLenPdf::7                    166                       # What read queue length does an incoming req see
system.mem_ctrls1.rdQLenPdf::8                    107                       # What read queue length does an incoming req see
system.mem_ctrls1.rdQLenPdf::9                     74                       # What read queue length does an incoming req see
system.mem_ctrls1.rdQLenPdf::10                    58                       # What read queue length does an incoming req see
system.mem_ctrls1.rdQLenPdf::11                    43                       # What read queue length does an incoming req see
system.mem_ctrls1.rdQLenPdf::12                    34                       # What read queue length does an incoming req see
system.mem_ctrls1.rdQLenPdf::13                    29                       # What read queue length does an incoming req see
system.mem_ctrls1.rdQLenPdf::14                    30                       # What read queue length does an incoming req see
system.mem_ctrls1.rdQLenPdf::15                    20                       # What read queue length does an incoming req see
system.mem_ctrls1.rdQLenPdf::16                    18                       # What read queue length does an incoming req see
system.mem_ctrls1.rdQLenPdf::17                    15                       # What read queue length does an incoming req see
system.mem_ctrls1.rdQLenPdf::18                    12                       # What read queue length does an incoming req see
system.mem_ctrls1.rdQLenPdf::19                     9                       # What read queue length does an incoming req see
system.mem_ctrls1.rdQLenPdf::20                    10                       # What read queue length does an incoming req see
system.mem_ctrls1.rdQLenPdf::21                     7                       # What read queue length does an incoming req see
system.mem_ctrls1.rdQLenPdf::22                     7                       # What read queue length does an incoming req see
system.mem_ctrls1.rdQLenPdf::23                     5                       # What read queue length does an incoming req see
system.mem_ctrls1.rdQLenPdf::24                     3                       # What read queue length does an incoming req see
system.mem_ctrls1.rdQLenPdf::25                     3                       # What read queue length does an incoming req see
system.mem_ctrls1.rdQLenPdf::26                     3                       # What read queue length does an incoming req see
system.mem_ctrls1.rdQLenPdf::27                     1                       # What read queue length does an incoming req see
system.mem_ctrls1.rdQLenPdf::28                     1                       # What read queue length does an incoming req see
system.mem_ctrls1.rdQLenPdf::29                     1                       # What read queue length does an incoming req see
system.mem_ctrls1.rdQLenPdf::30                     1                       # What read queue length does an incoming req see
system.mem_ctrls1.rdQLenPdf::31                     4                       # What read queue length does an incoming req see
system.mem_ctrls1.wrQLenPdf::0                  11305                       # What write queue length does an incoming req see
system.mem_ctrls1.wrQLenPdf::1                  12320                       # What write queue length does an incoming req see
system.mem_ctrls1.wrQLenPdf::2                  12335                       # What write queue length does an incoming req see
system.mem_ctrls1.wrQLenPdf::3                  12126                       # What write queue length does an incoming req see
system.mem_ctrls1.wrQLenPdf::4                  11760                       # What write queue length does an incoming req see
system.mem_ctrls1.wrQLenPdf::5                    434                       # What write queue length does an incoming req see
system.mem_ctrls1.wrQLenPdf::6                    177                       # What write queue length does an incoming req see
system.mem_ctrls1.wrQLenPdf::7                    245                       # What write queue length does an incoming req see
system.mem_ctrls1.bytesPerActivate::samples        50657                       # Bytes accessed per row activation
system.mem_ctrls1.bytesPerActivate::mean   172.993426                       # Bytes accessed per row activation
system.mem_ctrls1.bytesPerActivate::gmean   122.092238                       # Bytes accessed per row activation
system.mem_ctrls1.bytesPerActivate::stdev   179.982343                       # Bytes accessed per row activation
system.mem_ctrls1.bytesPerActivate::0-127        25563     50.46%     50.46% # Bytes accessed per row activation
system.mem_ctrls1.bytesPerActivate::128-255        12565     24.80%     75.27% # Bytes accessed per row activation
system.mem_ctrls1.bytesPerActivate::256-383         7547     14.90%     90.17% # Bytes accessed per row activation
system.mem_ctrls1.bytesPerActivate::384-511         1854      3.66%     93.83% # Bytes accessed per row activation
system.mem_ctrls1.bytesPerActivate::512-639         1164      2.30%     96.12% # Bytes accessed per row activation
system.mem_ctrls1.bytesPerActivate::640-767          601      1.19%     97.31% # Bytes accessed per row activation
system.mem_ctrls1.bytesPerActivate::768-895          433      0.85%     98.16% # Bytes accessed per row activation
system.mem_ctrls1.bytesPerActivate::896-1023          318      0.63%     98.79% # Bytes accessed per row activation
system.mem_ctrls1.bytesPerActivate::1024-1151          612      1.21%    100.00% # Bytes accessed per row activation
system.mem_ctrls1.bytesPerActivate::total        50657                       # Bytes accessed per row activation
system.mem_ctrls1.rdPerTurnAround::samples        11320                       # Reads before turning the bus around for writes
system.mem_ctrls1.rdPerTurnAround::mean      6.734894                       # Reads before turning the bus around for writes
system.mem_ctrls1.rdPerTurnAround::stdev    29.911575                       # Reads before turning the bus around for writes
system.mem_ctrls1.rdPerTurnAround::0-127        11315     99.96%     99.96% # Reads before turning the bus around for writes
system.mem_ctrls1.rdPerTurnAround::128-255            3      0.03%     99.98% # Reads before turning the bus around for writes
system.mem_ctrls1.rdPerTurnAround::1152-1279            1      0.01%     99.99% # Reads before turning the bus around for writes
system.mem_ctrls1.rdPerTurnAround::2816-2943            1      0.01%    100.00% # Reads before turning the bus around for writes
system.mem_ctrls1.rdPerTurnAround::total        11320                       # Reads before turning the bus around for writes
system.mem_ctrls1.wrPerTurnAround::samples        11320                       # Writes before turning the bus around for reads
system.mem_ctrls1.wrPerTurnAround::mean      5.362279                       # Writes before turning the bus around for reads
system.mem_ctrls1.wrPerTurnAround::gmean     5.284894                       # Writes before turning the bus around for reads
system.mem_ctrls1.wrPerTurnAround::stdev     1.136862                       # Writes before turning the bus around for reads
system.mem_ctrls1.wrPerTurnAround::4-7          10821     95.59%     95.59% # Writes before turning the bus around for reads
system.mem_ctrls1.wrPerTurnAround::8-11           405      3.58%     99.17% # Writes before turning the bus around for reads
system.mem_ctrls1.wrPerTurnAround::12-15           71      0.63%     99.80% # Writes before turning the bus around for reads
system.mem_ctrls1.wrPerTurnAround::16-19           23      0.20%    100.00% # Writes before turning the bus around for reads
system.mem_ctrls1.wrPerTurnAround::total        11320                       # Writes before turning the bus around for reads
system.mem_ctrls1.totQLat                  1809333830                       # Total ticks spent queuing
system.mem_ctrls1.totMemAccLat             3238871330                       # Total ticks spent from burst creation until serviced by the DRAM
system.mem_ctrls1.totBusLat                 381210000                       # Total ticks spent in databus transfers
system.mem_ctrls1.avgQLat                    23731.46                       # Average queueing delay per DRAM burst
system.mem_ctrls1.avgBusLat                   5000.00                       # Average bus latency per DRAM burst
system.mem_ctrls1.avgMemAccLat               42481.46                       # Average memory access latency per DRAM burst
system.mem_ctrls1.avgRdBW                      128.67                       # Average DRAM read bandwidth in MiByte/s
system.mem_ctrls1.avgWrBW                      102.44                       # Average achieved write bandwidth in MiByte/s
system.mem_ctrls1.avgRdBWSys                   128.69                       # Average system read bandwidth in MiByte/s
system.mem_ctrls1.avgWrBWSys                   102.44                       # Average system write bandwidth in MiByte/s
system.mem_ctrls1.peakBW                     12800.00                       # Theoretical peak bandwidth in MiByte/s
system.mem_ctrls1.busUtil                        1.81                       # Data bus utilization in percentage
system.mem_ctrls1.busUtilRead                    1.01                       # Data bus utilization in percentage for reads
system.mem_ctrls1.busUtilWrite                   0.80                       # Data bus utilization in percentage for writes
system.mem_ctrls1.avgRdQLen                      1.07                       # Average read queue length when enqueuing
system.mem_ctrls1.avgWrQLen                      2.91                       # Average write queue length when enqueuing
system.mem_ctrls1.readRowHits                   52719                       # Number of row buffer hits during reads
system.mem_ctrls1.writeRowHits                  33555                       # Number of row buffer hits during writes
system.mem_ctrls1.readRowHitRate                69.15                       # Row buffer hit rate for reads
system.mem_ctrls1.writeRowHitRate               55.28                       # Row buffer hit rate for writes
system.mem_ctrls1.avgGap                    276890.82                       # Average gap between requests
system.mem_ctrls1.pageHitRate                   63.00                       # Row buffer hit rate, read and write combined
system.mem_ctrls1.memoryStateTime::IDLE    8946343000                       # Time in different power states
system.mem_ctrls1.memoryStateTime::REF     1266200000                       # Time in different power states
system.mem_ctrls1.memoryStateTime::PRE_PDN            0                       # Time in different power states
system.mem_ctrls1.memoryStateTime::ACT    27707159500                       # Time in different power states
system.mem_ctrls1.memoryStateTime::ACT_PDN            0                       # Time in different power states
system.mem_ctrls1.actEnergy::0              192039120                       # Energy for activate commands per rank (pJ)
system.mem_ctrls1.actEnergy::1              190859760                       # Energy for activate commands per rank (pJ)
system.mem_ctrls1.preEnergy::0              104783250                       # Energy for precharge commands per rank (pJ)
system.mem_ctrls1.preEnergy::1              104139750                       # Energy for precharge commands per rank (pJ)
system.mem_ctrls1.readEnergy::0             300534000                       # Energy for read commands per rank (pJ)
system.mem_ctrls1.readEnergy::1             294013200                       # Energy for read commands per rank (pJ)
system.mem_ctrls1.writeEnergy::0            195961680                       # Energy for write commands per rank (pJ)
system.mem_ctrls1.writeEnergy::1            197316000                       # Energy for write commands per rank (pJ)
system.mem_ctrls1.refreshEnergy::0         2476687200                       # Energy for refresh commands per rank (pJ)
system.mem_ctrls1.refreshEnergy::1         2476687200                       # Energy for refresh commands per rank (pJ)
system.mem_ctrls1.actBackEnergy::0        15068129265                       # Energy for active background per rank (pJ)
system.mem_ctrls1.actBackEnergy::1        14336688735                       # Energy for active background per rank (pJ)
system.mem_ctrls1.preBackEnergy::0         9533923500                       # Energy for precharge background per rank (pJ)
system.mem_ctrls1.preBackEnergy::1        10175538000                       # Energy for precharge background per rank (pJ)
system.mem_ctrls1.totalEnergy::0          27872058015                       # Total energy per rank (pJ)
system.mem_ctrls1.totalEnergy::1          27775242645                       # Total energy per rank (pJ)
system.mem_ctrls1.averagePower::0          735.036171                       # Core power per rank (mW)
system.mem_ctrls1.averagePower::1          732.482976                       # Core power per rank (mW)
system.mem_ctrls2.bytes_read::ruby.dir_cntrl2      4879808                       # Number of bytes read from this memory
system.mem_ctrls2.bytes_read::total           4879808                       # Number of bytes read from this memory
system.mem_ctrls2.bytes_written::ruby.dir_cntrl2      3884992                       # Number of bytes written to this memory
system.mem_ctrls2.bytes_written::total        3884992                       # Number of bytes written to this memory
system.mem_ctrls2.num_reads::ruby.dir_cntrl2        76247                       # Number of read requests responded to by this memory
system.mem_ctrls2.num_reads::total              76247                       # Number of read requests responded to by this memory
system.mem_ctrls2.num_writes::ruby.dir_cntrl2        60703                       # Number of write requests responded to by this memory
system.mem_ctrls2.num_writes::total             60703                       # Number of write requests responded to by this memory
system.mem_ctrls2.bw_read::ruby.dir_cntrl2    128678141                       # Total read bandwidth from this memory (bytes/s)
system.mem_ctrls2.bw_read::total            128678141                       # Total read bandwidth from this memory (bytes/s)
system.mem_ctrls2.bw_write::ruby.dir_cntrl2    102445332                       # Write bandwidth from this memory (bytes/s)
system.mem_ctrls2.bw_write::total           102445332                       # Write bandwidth from this memory (bytes/s)
system.mem_ctrls2.bw_total::ruby.dir_cntrl2    231123473                       # Total bandwidth to/from this memory (bytes/s)
system.mem_ctrls2.bw_total::total           231123473                       # Total bandwidth to/from this memory (bytes/s)
system.mem_ctrls2.readReqs                      76247                       # Number of read requests accepted
system.mem_ctrls2.writeReqs                     60703                       # Number of write requests accepted
system.mem_ctrls2.readBursts                    76247                       # Number of DRAM read bursts, including those serviced by the write queue
system.mem_ctrls2.writeBursts                   60703                       # Number of DRAM write bursts, including those merged in the write queue
system.mem_ctrls2.bytesReadDRAM               4878848                       # Total number of bytes read from DRAM
system.mem_ctrls2.bytesReadWrQ                    960                       # Total number of bytes read from write queue
system.mem_ctrls2.bytesWritten                3884928                       # Total number of bytes written to DRAM
system.mem_ctrls2.bytesReadSys                4879808                       # Total read bytes from the system interface side
system.mem_ctrls2.bytesWrittenSys             3884992                       # Total written bytes from the system interface side
system.mem_ctrls2.servicedByWrQ                    15                       # Number of DRAM read bursts serviced by the write queue
system.mem_ctrls2.mergedWrBursts                    0                       # Number of DRAM write bursts merged with an existing one
system.mem_ctrls2.neitherReadNorWriteReqs            0                       # Number of requests that are neither read nor write
system.mem_ctrls2.perBankRdBursts::0             4320                       # Per bank write bursts
system.mem_ctrls2.perBankRdBursts::1             4745                       # Per bank write bursts
system.mem_ctrls2.perBankRdBursts::2             4468                       # Per bank write bursts
system.mem_ctrls2.perBankRdBursts::3             4903                       # Per bank write bursts
system.mem_ctrls2.perBankRdBursts::4             4775                       # Per bank write bursts
system.mem_ctrls2.perBankRdBursts::5             5291                       # Per bank write bursts
system.mem_ctrls2.perBankRdBursts::6             4861                       # Per bank write bursts
system.mem_ctrls2.perBankRdBursts::7             5160                       # Per bank write bursts
system.mem_ctrls2.perBankRdBursts::8             4916                       # Per bank write bursts
system.mem_ctrls2.perBankRdBursts::9             5096                       # Per bank write bursts
system.mem_ctrls2.perBankRdBursts::10            4519                       # Per bank write bursts
system.mem_ctrls2.perBankRdBursts::11            4768                       # Per bank write bursts
system.mem_ctrls2.perBankRdBursts::12            4492                       # Per bank write bursts
system.mem_ctrls2.perBankRdBursts::13            4541                       # Per bank write bursts
system.mem_ctrls2.perBankRdBursts::14            4626                       # Per bank write bursts
system.mem_ctrls2.perBankRdBursts::15            4751                       # Per bank write bursts
system.mem_ctrls2.perBankWrBursts::0             3554                       # Per bank write bursts
system.mem_ctrls2.perBankWrBursts::1             3502                       # Per bank write bursts
system.mem_ctrls2.perBankWrBursts::2             3576                       # Per bank write bursts
system.mem_ctrls2.perBankWrBursts::3             3732                       # Per bank write bursts
system.mem_ctrls2.perBankWrBursts::4             3787                       # Per bank write bursts
system.mem_ctrls2.perBankWrBursts::5             4117                       # Per bank write bursts
system.mem_ctrls2.perBankWrBursts::6             3855                       # Per bank write bursts
system.mem_ctrls2.perBankWrBursts::7             4114                       # Per bank write bursts
system.mem_ctrls2.perBankWrBursts::8             3968                       # Per bank write bursts
system.mem_ctrls2.perBankWrBursts::9             4042                       # Per bank write bursts
system.mem_ctrls2.perBankWrBursts::10            3610                       # Per bank write bursts
system.mem_ctrls2.perBankWrBursts::11            3577                       # Per bank write bursts
system.mem_ctrls2.perBankWrBursts::12            3718                       # Per bank write bursts
system.mem_ctrls2.perBankWrBursts::13            3818                       # Per bank write bursts
system.mem_ctrls2.perBankWrBursts::14            3896                       # Per bank write bursts
system.mem_ctrls2.perBankWrBursts::15            3836                       # Per bank write bursts
system.mem_ctrls2.numRdRetry                        0                       # Number of times read queue was full causing retry
system.mem_ctrls2.numWrRetry                      126                       # Number of times write queue was full causing retry
system.mem_ctrls2.totGap                  37922347000                       # Total gap between requests
system.mem_ctrls2.readPktSize::0                    0                       # Read request sizes (log2)
system.mem_ctrls2.readPktSize::1                    0                       # Read request sizes (log2)
system.mem_ctrls2.readPktSize::2                    0                       # Read request sizes (log2)
system.mem_ctrls2.readPktSize::3                    0                       # Read request sizes (log2)
system.mem_ctrls2.readPktSize::4                    0                       # Read request sizes (log2)
system.mem_ctrls2.readPktSize::5                    0                       # Read request sizes (log2)
system.mem_ctrls2.readPktSize::6                76247                       # Read request sizes (log2)
system.mem_ctrls2.writePktSize::0                   0                       # Write request sizes (log2)
system.mem_ctrls2.writePktSize::1                   0                       # Write request sizes (log2)
system.mem_ctrls2.writePktSize::2                   0                       # Write request sizes (log2)
system.mem_ctrls2.writePktSize::3                   0                       # Write request sizes (log2)
system.mem_ctrls2.writePktSize::4                   0                       # Write request sizes (log2)
system.mem_ctrls2.writePktSize::5                   0                       # Write request sizes (log2)
system.mem_ctrls2.writePktSize::6               60703                       # Write request sizes (log2)
system.mem_ctrls2.rdQLenPdf::0                  59296                       # What read queue length does an incoming req see
system.mem_ctrls2.rdQLenPdf::1                  10198                       # What read queue length does an incoming req see
system.mem_ctrls2.rdQLenPdf::2                   3246                       # What read queue length does an incoming req see
system.mem_ctrls2.rdQLenPdf::3                   1375                       # What read queue length does an incoming req see
system.mem_ctrls2.rdQLenPdf::4                    741                       # What read queue length does an incoming req see
system.mem_ctrls2.rdQLenPdf::5                    458                       # What read queue length does an incoming req see
system.mem_ctrls2.rdQLenPdf::6                    279                       # What read queue length does an incoming req see
system.mem_ctrls2.rdQLenPdf::7                    173                       # What read queue length does an incoming req see
system.mem_ctrls2.rdQLenPdf::8                    116                       # What read queue length does an incoming req see
system.mem_ctrls2.rdQLenPdf::9                     77                       # What read queue length does an incoming req see
system.mem_ctrls2.rdQLenPdf::10                    62                       # What read queue length does an incoming req see
system.mem_ctrls2.rdQLenPdf::11                    45                       # What read queue length does an incoming req see
system.mem_ctrls2.rdQLenPdf::12                    29                       # What read queue length does an incoming req see
system.mem_ctrls2.rdQLenPdf::13                    27                       # What read queue length does an incoming req see
system.mem_ctrls2.rdQLenPdf::14                    29                       # What read queue length does an incoming req see
system.mem_ctrls2.rdQLenPdf::15                    24                       # What read queue length does an incoming req see
system.mem_ctrls2.rdQLenPdf::16                    16                       # What read queue length does an incoming req see
system.mem_ctrls2.rdQLenPdf::17                     8                       # What read queue length does an incoming req see
system.mem_ctrls2.rdQLenPdf::18                     8                       # What read queue length does an incoming req see
system.mem_ctrls2.rdQLenPdf::19                     6                       # What read queue length does an incoming req see
system.mem_ctrls2.rdQLenPdf::20                     5                       # What read queue length does an incoming req see
system.mem_ctrls2.rdQLenPdf::21                     6                       # What read queue length does an incoming req see
system.mem_ctrls2.rdQLenPdf::22                     4                       # What read queue length does an incoming req see
system.mem_ctrls2.rdQLenPdf::23                     2                       # What read queue length does an incoming req see
system.mem_ctrls2.rdQLenPdf::24                     2                       # What read queue length does an incoming req see
system.mem_ctrls2.rdQLenPdf::25                     0                       # What read queue length does an incoming req see
system.mem_ctrls2.rdQLenPdf::26                     0                       # What read queue length does an incoming req see
system.mem_ctrls2.rdQLenPdf::27                     0                       # What read queue length does an incoming req see
system.mem_ctrls2.rdQLenPdf::28                     0                       # What read queue length does an incoming req see
system.mem_ctrls2.rdQLenPdf::29                     0                       # What read queue length does an incoming req see
system.mem_ctrls2.rdQLenPdf::30                     0                       # What read queue length does an incoming req see
system.mem_ctrls2.rdQLenPdf::31                     0                       # What read queue length does an incoming req see
system.mem_ctrls2.wrQLenPdf::0                  11318                       # What write queue length does an incoming req see
system.mem_ctrls2.wrQLenPdf::1                  12344                       # What write queue length does an incoming req see
system.mem_ctrls2.wrQLenPdf::2                  12375                       # What write queue length does an incoming req see
system.mem_ctrls2.wrQLenPdf::3                  12109                       # What write queue length does an incoming req see
system.mem_ctrls2.wrQLenPdf::4                  11747                       # What write queue length does an incoming req see
system.mem_ctrls2.wrQLenPdf::5                    425                       # What write queue length does an incoming req see
system.mem_ctrls2.wrQLenPdf::6                    166                       # What write queue length does an incoming req see
system.mem_ctrls2.wrQLenPdf::7                    219                       # What write queue length does an incoming req see
system.mem_ctrls2.bytesPerActivate::samples        50835                       # Bytes accessed per row activation
system.mem_ctrls2.bytesPerActivate::mean   172.375096                       # Bytes accessed per row activation
system.mem_ctrls2.bytesPerActivate::gmean   121.652991                       # Bytes accessed per row activation
system.mem_ctrls2.bytesPerActivate::stdev   179.435357                       # Bytes accessed per row activation
system.mem_ctrls2.bytesPerActivate::0-127        25847     50.84%     50.84% # Bytes accessed per row activation
system.mem_ctrls2.bytesPerActivate::128-255        12480     24.55%     75.39% # Bytes accessed per row activation
system.mem_ctrls2.bytesPerActivate::256-383         7518     14.79%     90.18% # Bytes accessed per row activation
system.mem_ctrls2.bytesPerActivate::384-511         1890      3.72%     93.90% # Bytes accessed per row activation
system.mem_ctrls2.bytesPerActivate::512-639         1130      2.22%     96.12% # Bytes accessed per row activation
system.mem_ctrls2.bytesPerActivate::640-767          597      1.17%     97.30% # Bytes accessed per row activation
system.mem_ctrls2.bytesPerActivate::768-895          468      0.92%     98.22% # Bytes accessed per row activation
system.mem_ctrls2.bytesPerActivate::896-1023          297      0.58%     98.80% # Bytes accessed per row activation
system.mem_ctrls2.bytesPerActivate::1024-1151          608      1.20%    100.00% # Bytes accessed per row activation
system.mem_ctrls2.bytesPerActivate::total        50835                       # Bytes accessed per row activation
system.mem_ctrls2.rdPerTurnAround::samples        11329                       # Reads before turning the bus around for writes
system.mem_ctrls2.rdPerTurnAround::mean      6.728484                       # Reads before turning the bus around for writes
system.mem_ctrls2.rdPerTurnAround::stdev    29.970323                       # Reads before turning the bus around for writes
system.mem_ctrls2.rdPerTurnAround::0-127        11324     99.96%     99.96% # Reads before turning the bus around for writes
system.mem_ctrls2.rdPerTurnAround::128-255            3      0.03%     99.98% # Reads before turning the bus around for writes
system.mem_ctrls2.rdPerTurnAround::1152-1279            1      0.01%     99.99% # Reads before turning the bus around for writes
system.mem_ctrls2.rdPerTurnAround::2816-2943            1      0.01%    100.00% # Reads before turning the bus around for writes
system.mem_ctrls2.rdPerTurnAround::total        11329                       # Reads before turning the bus around for writes
system.mem_ctrls2.wrPerTurnAround::samples        11329                       # Writes before turning the bus around for reads
system.mem_ctrls2.wrPerTurnAround::mean      5.358108                       # Writes before turning the bus around for reads
system.mem_ctrls2.wrPerTurnAround::gmean     5.281536                       # Writes before turning the bus around for reads
system.mem_ctrls2.wrPerTurnAround::stdev     1.132241                       # Writes before turning the bus around for reads
system.mem_ctrls2.wrPerTurnAround::4-7          10851     95.78%     95.78% # Writes before turning the bus around for reads
system.mem_ctrls2.wrPerTurnAround::8-11           382      3.37%     99.15% # Writes before turning the bus around for reads
system.mem_ctrls2.wrPerTurnAround::12-15           77      0.68%     99.83% # Writes before turning the bus around for reads
system.mem_ctrls2.wrPerTurnAround::16-19           19      0.17%    100.00% # Writes before turning the bus around for reads
system.mem_ctrls2.wrPerTurnAround::total        11329                       # Writes before turning the bus around for reads
system.mem_ctrls2.totQLat                  1794072875                       # Total ticks spent queuing
system.mem_ctrls2.totMemAccLat             3223422875                       # Total ticks spent from burst creation until serviced by the DRAM
system.mem_ctrls2.totBusLat                 381160000                       # Total ticks spent in databus transfers
system.mem_ctrls2.avgQLat                    23534.38                       # Average queueing delay per DRAM burst
system.mem_ctrls2.avgBusLat                   5000.00                       # Average bus latency per DRAM burst
system.mem_ctrls2.avgMemAccLat               42284.38                       # Average memory access latency per DRAM burst
system.mem_ctrls2.avgRdBW                      128.65                       # Average DRAM read bandwidth in MiByte/s
system.mem_ctrls2.avgWrBW                      102.44                       # Average achieved write bandwidth in MiByte/s
system.mem_ctrls2.avgRdBWSys                   128.68                       # Average system read bandwidth in MiByte/s
system.mem_ctrls2.avgWrBWSys                   102.45                       # Average system write bandwidth in MiByte/s
system.mem_ctrls2.peakBW                     12800.00                       # Theoretical peak bandwidth in MiByte/s
system.mem_ctrls2.busUtil                        1.81                       # Data bus utilization in percentage
system.mem_ctrls2.busUtilRead                    1.01                       # Data bus utilization in percentage for reads
system.mem_ctrls2.busUtilWrite                   0.80                       # Data bus utilization in percentage for writes
system.mem_ctrls2.avgRdQLen                      1.07                       # Average read queue length when enqueuing
system.mem_ctrls2.avgWrQLen                      2.93                       # Average write queue length when enqueuing
system.mem_ctrls2.readRowHits                   52615                       # Number of row buffer hits during reads
system.mem_ctrls2.writeRowHits                  33476                       # Number of row buffer hits during writes
system.mem_ctrls2.readRowHitRate                69.02                       # Row buffer hit rate for reads
system.mem_ctrls2.writeRowHitRate               55.15                       # Row buffer hit rate for writes
system.mem_ctrls2.avgGap                    276906.51                       # Average gap between requests
system.mem_ctrls2.pageHitRate                   62.87                       # Row buffer hit rate, read and write combined
system.mem_ctrls2.memoryStateTime::IDLE    8928838000                       # Time in different power states
system.mem_ctrls2.memoryStateTime::REF     1266200000                       # Time in different power states
system.mem_ctrls2.memoryStateTime::PRE_PDN            0                       # Time in different power states
system.mem_ctrls2.memoryStateTime::ACT    27724273250                       # Time in different power states
system.mem_ctrls2.memoryStateTime::ACT_PDN            0                       # Time in different power states
system.mem_ctrls2.actEnergy::0              192598560                       # Energy for activate commands per rank (pJ)
system.mem_ctrls2.actEnergy::1              191683800                       # Energy for activate commands per rank (pJ)
system.mem_ctrls2.preEnergy::0              105088500                       # Energy for precharge commands per rank (pJ)
system.mem_ctrls2.preEnergy::1              104589375                       # Energy for precharge commands per rank (pJ)
system.mem_ctrls2.readEnergy::0             300401400                       # Energy for read commands per rank (pJ)
system.mem_ctrls2.readEnergy::1             294099000                       # Energy for read commands per rank (pJ)
system.mem_ctrls2.writeEnergy::0            195935760                       # Energy for write commands per rank (pJ)
system.mem_ctrls2.writeEnergy::1            197348400                       # Energy for write commands per rank (pJ)
system.mem_ctrls2.refreshEnergy::0         2476687200                       # Energy for refresh commands per rank (pJ)
system.mem_ctrls2.refreshEnergy::1         2476687200                       # Energy for refresh commands per rank (pJ)
system.mem_ctrls2.actBackEnergy::0        14948413020                       # Energy for active background per rank (pJ)
system.mem_ctrls2.actBackEnergy::1        14479219800                       # Energy for active background per rank (pJ)
system.mem_ctrls2.preBackEnergy::0         9638935500                       # Energy for precharge background per rank (pJ)
system.mem_ctrls2.preBackEnergy::1        10050508500                       # Energy for precharge background per rank (pJ)
system.mem_ctrls2.totalEnergy::0          27858059940                       # Total energy per rank (pJ)
system.mem_ctrls2.totalEnergy::1          27794136075                       # Total energy per rank (pJ)
system.mem_ctrls2.averagePower::0          734.667090                       # Core power per rank (mW)
system.mem_ctrls2.averagePower::1          732.981303                       # Core power per rank (mW)
system.mem_ctrls3.bytes_read::ruby.dir_cntrl3      4856960                       # Number of bytes read from this memory
system.mem_ctrls3.bytes_read::total           4856960                       # Number of bytes read from this memory
system.mem_ctrls3.bytes_written::ruby.dir_cntrl3      3878848                       # Number of bytes written to this memory
system.mem_ctrls3.bytes_written::total        3878848                       # Number of bytes written to this memory
system.mem_ctrls3.num_reads::ruby.dir_cntrl3        75890                       # Number of read requests responded to by this memory
system.mem_ctrls3.num_reads::total              75890                       # Number of read requests responded to by this memory
system.mem_ctrls3.num_writes::ruby.dir_cntrl3        60607                       # Number of write requests responded to by this memory
system.mem_ctrls3.num_writes::total             60607                       # Number of write requests responded to by this memory
system.mem_ctrls3.bw_read::ruby.dir_cntrl3    128075651                       # Total read bandwidth from this memory (bytes/s)
system.mem_ctrls3.bw_read::total            128075651                       # Total read bandwidth from this memory (bytes/s)
system.mem_ctrls3.bw_write::ruby.dir_cntrl3    102283317                       # Write bandwidth from this memory (bytes/s)
system.mem_ctrls3.bw_write::total           102283317                       # Write bandwidth from this memory (bytes/s)
system.mem_ctrls3.bw_total::ruby.dir_cntrl3    230358968                       # Total bandwidth to/from this memory (bytes/s)
system.mem_ctrls3.bw_total::total           230358968                       # Total bandwidth to/from this memory (bytes/s)
system.mem_ctrls3.readReqs                      75891                       # Number of read requests accepted
system.mem_ctrls3.writeReqs                     60607                       # Number of write requests accepted
system.mem_ctrls3.readBursts                    75891                       # Number of DRAM read bursts, including those serviced by the write queue
system.mem_ctrls3.writeBursts                   60607                       # Number of DRAM write bursts, including those merged in the write queue
system.mem_ctrls3.bytesReadDRAM               4856448                       # Total number of bytes read from DRAM
system.mem_ctrls3.bytesReadWrQ                    576                       # Total number of bytes read from write queue
system.mem_ctrls3.bytesWritten                3878784                       # Total number of bytes written to DRAM
system.mem_ctrls3.bytesReadSys                4857024                       # Total read bytes from the system interface side
system.mem_ctrls3.bytesWrittenSys             3878848                       # Total written bytes from the system interface side
system.mem_ctrls3.servicedByWrQ                     9                       # Number of DRAM read bursts serviced by the write queue
system.mem_ctrls3.mergedWrBursts                    0                       # Number of DRAM write bursts merged with an existing one
system.mem_ctrls3.neitherReadNorWriteReqs            0                       # Number of requests that are neither read nor write
system.mem_ctrls3.perBankRdBursts::0             4296                       # Per bank write bursts
system.mem_ctrls3.perBankRdBursts::1             4712                       # Per bank write bursts
system.mem_ctrls3.perBankRdBursts::2             4422                       # Per bank write bursts
system.mem_ctrls3.perBankRdBursts::3             4860                       # Per bank write bursts
system.mem_ctrls3.perBankRdBursts::4             4731                       # Per bank write bursts
system.mem_ctrls3.perBankRdBursts::5             5238                       # Per bank write bursts
system.mem_ctrls3.perBankRdBursts::6             4864                       # Per bank write bursts
system.mem_ctrls3.perBankRdBursts::7             5143                       # Per bank write bursts
system.mem_ctrls3.perBankRdBursts::8             4916                       # Per bank write bursts
system.mem_ctrls3.perBankRdBursts::9             5079                       # Per bank write bursts
system.mem_ctrls3.perBankRdBursts::10            4523                       # Per bank write bursts
system.mem_ctrls3.perBankRdBursts::11            4730                       # Per bank write bursts
system.mem_ctrls3.perBankRdBursts::12            4478                       # Per bank write bursts
system.mem_ctrls3.perBankRdBursts::13            4516                       # Per bank write bursts
system.mem_ctrls3.perBankRdBursts::14            4646                       # Per bank write bursts
system.mem_ctrls3.perBankRdBursts::15            4728                       # Per bank write bursts
system.mem_ctrls3.perBankWrBursts::0             3548                       # Per bank write bursts
system.mem_ctrls3.perBankWrBursts::1             3499                       # Per bank write bursts
system.mem_ctrls3.perBankWrBursts::2             3571                       # Per bank write bursts
system.mem_ctrls3.perBankWrBursts::3             3718                       # Per bank write bursts
system.mem_ctrls3.perBankWrBursts::4             3782                       # Per bank write bursts
system.mem_ctrls3.perBankWrBursts::5             4100                       # Per bank write bursts
system.mem_ctrls3.perBankWrBursts::6             3846                       # Per bank write bursts
system.mem_ctrls3.perBankWrBursts::7             4097                       # Per bank write bursts
system.mem_ctrls3.perBankWrBursts::8             3970                       # Per bank write bursts
system.mem_ctrls3.perBankWrBursts::9             4038                       # Per bank write bursts
system.mem_ctrls3.perBankWrBursts::10            3606                       # Per bank write bursts
system.mem_ctrls3.perBankWrBursts::11            3581                       # Per bank write bursts
system.mem_ctrls3.perBankWrBursts::12            3712                       # Per bank write bursts
system.mem_ctrls3.perBankWrBursts::13            3820                       # Per bank write bursts
system.mem_ctrls3.perBankWrBursts::14            3894                       # Per bank write bursts
system.mem_ctrls3.perBankWrBursts::15            3824                       # Per bank write bursts
system.mem_ctrls3.numRdRetry                        6                       # Number of times read queue was full causing retry
system.mem_ctrls3.numWrRetry                      155                       # Number of times write queue was full causing retry
system.mem_ctrls3.totGap                  37921837000                       # Total gap between requests
system.mem_ctrls3.readPktSize::0                    0                       # Read request sizes (log2)
system.mem_ctrls3.readPktSize::1                    0                       # Read request sizes (log2)
system.mem_ctrls3.readPktSize::2                    0                       # Read request sizes (log2)
system.mem_ctrls3.readPktSize::3                    0                       # Read request sizes (log2)
system.mem_ctrls3.readPktSize::4                    0                       # Read request sizes (log2)
system.mem_ctrls3.readPktSize::5                    0                       # Read request sizes (log2)
system.mem_ctrls3.readPktSize::6                75891                       # Read request sizes (log2)
system.mem_ctrls3.writePktSize::0                   0                       # Write request sizes (log2)
system.mem_ctrls3.writePktSize::1                   0                       # Write request sizes (log2)
system.mem_ctrls3.writePktSize::2                   0                       # Write request sizes (log2)
system.mem_ctrls3.writePktSize::3                   0                       # Write request sizes (log2)
system.mem_ctrls3.writePktSize::4                   0                       # Write request sizes (log2)
system.mem_ctrls3.writePktSize::5                   0                       # Write request sizes (log2)
system.mem_ctrls3.writePktSize::6               60607                       # Write request sizes (log2)
system.mem_ctrls3.rdQLenPdf::0                  58925                       # What read queue length does an incoming req see
system.mem_ctrls3.rdQLenPdf::1                  10120                       # What read queue length does an incoming req see
system.mem_ctrls3.rdQLenPdf::2                   3311                       # What read queue length does an incoming req see
system.mem_ctrls3.rdQLenPdf::3                   1361                       # What read queue length does an incoming req see
system.mem_ctrls3.rdQLenPdf::4                    783                       # What read queue length does an incoming req see
system.mem_ctrls3.rdQLenPdf::5                    471                       # What read queue length does an incoming req see
system.mem_ctrls3.rdQLenPdf::6                    296                       # What read queue length does an incoming req see
system.mem_ctrls3.rdQLenPdf::7                    171                       # What read queue length does an incoming req see
system.mem_ctrls3.rdQLenPdf::8                     91                       # What read queue length does an incoming req see
system.mem_ctrls3.rdQLenPdf::9                     67                       # What read queue length does an incoming req see
system.mem_ctrls3.rdQLenPdf::10                    45                       # What read queue length does an incoming req see
system.mem_ctrls3.rdQLenPdf::11                    32                       # What read queue length does an incoming req see
system.mem_ctrls3.rdQLenPdf::12                    28                       # What read queue length does an incoming req see
system.mem_ctrls3.rdQLenPdf::13                    23                       # What read queue length does an incoming req see
system.mem_ctrls3.rdQLenPdf::14                    26                       # What read queue length does an incoming req see
system.mem_ctrls3.rdQLenPdf::15                    22                       # What read queue length does an incoming req see
system.mem_ctrls3.rdQLenPdf::16                    19                       # What read queue length does an incoming req see
system.mem_ctrls3.rdQLenPdf::17                    15                       # What read queue length does an incoming req see
system.mem_ctrls3.rdQLenPdf::18                    12                       # What read queue length does an incoming req see
system.mem_ctrls3.rdQLenPdf::19                     9                       # What read queue length does an incoming req see
system.mem_ctrls3.rdQLenPdf::20                     8                       # What read queue length does an incoming req see
system.mem_ctrls3.rdQLenPdf::21                     7                       # What read queue length does an incoming req see
system.mem_ctrls3.rdQLenPdf::22                     7                       # What read queue length does an incoming req see
system.mem_ctrls3.rdQLenPdf::23                     8                       # What read queue length does an incoming req see
system.mem_ctrls3.rdQLenPdf::24                    10                       # What read queue length does an incoming req see
[...]
system.ruby.L2Cache_Controller.MT_IIB.WB_Data::total       209073                      
system.ruby.L2Cache_Controller.MT_IIB.WB_Data_clean |         699      3.18%      3.18% |         695      3.16%      6.34% |         689      3.14%      9.48% |         685      3.12%     12.60% |         690      3.14%     15.74% |         689      3.14%     18.87% |         687      3.13%     22.00% |         683      3.11%     25.11% |         699      3.18%     28.29% |         681      3.10%     31.39% |         678      3.09%     34.48% |         690      3.14%     37.62% |         689      3.14%     40.75% |         671      3.05%     43.81% |         688      3.13%     46.94% |         690      3.14%     50.08% |         694      3.16%     53.24% |         696      3.17%     56.40% |         669      3.04%     59.45% |         678      3.09%     62.53% |         699      3.18%     65.72% |         673      3.06%     68.78% |         683      3.11%     71.89% |         679      3.09%     74.98% |         693      3.15%     78.13% |         686      3.12%     81.25% |         678      3.09%     84.34% |         676      3.08%     87.42% |         691      3.14%     90.56% |         696      3.17%     93.73% |         697      3.17%     96.90% |         681      3.10%    100.00%
system.ruby.L2Cache_Controller.MT_IIB.WB_Data_clean::total        21972                      
system.ruby.L2Cache_Controller.MT_IIB.Unblock |          59      0.95%      0.95% |          68      1.09%      2.04% |         175      2.81%      4.84% |         197      3.16%      8.00% |         120      1.92%      9.93% |         205      3.29%     13.22% |         223      3.58%     16.79% |         265      4.25%     21.04% |         257      4.12%     25.16% |         206      3.30%     28.47% |         185      2.97%     31.44% |         231      3.70%     35.14% |         209      3.35%     38.49% |         226      3.62%     42.12% |         148      2.37%     44.49% |         121      1.94%     46.43% |         185      2.97%     49.40% |         251      4.03%     53.42% |         243      3.90%     57.32% |         231      3.70%     61.03% |         255      4.09%     65.12% |         201      3.22%     68.34% |         146      2.34%     70.68% |         145      2.33%     73.01% |         250      4.01%     77.02% |         161      2.58%     79.60% |         220      3.53%     83.13% |         219      3.51%     86.64% |         152      2.44%     89.08% |         275      4.41%     93.49% |         139      2.23%     95.72% |         267      4.28%    100.00%
system.ruby.L2Cache_Controller.MT_IIB.Unblock::total         6235                      
system.ruby.L2Cache_Controller.MT_IB.L1_GETS |           0      0.00%      0.00% |           0      0.00%      0.00% |           0      0.00%      0.00% |           0      0.00%      0.00% |           0      0.00%      0.00% |           1     20.00%     20.00% |           0      0.00%     20.00% |           0      0.00%     20.00% |           0      0.00%     20.00% |           0      0.00%     20.00% |           0      0.00%     20.00% |           0      0.00%     20.00% |           0      0.00%     20.00% |           2     40.00%     60.00% |           0      0.00%     60.00% |           0      0.00%     60.00% |           0      0.00%     60.00% |           0      0.00%     60.00% |           0      0.00%     60.00% |           0      0.00%     60.00% |           0      0.00%     60.00% |           0      0.00%     60.00% |           1     20.00%     80.00% |           0      0.00%     80.00% |           0      0.00%     80.00% |           1     20.00%    100.00% |           0      0.00%    100.00% |           0      0.00%    100.00% |           0      0.00%    100.00% |           0      0.00%    100.00% |           0      0.00%    100.00% |           0      0.00%    100.00%
system.ruby.L2Cache_Controller.MT_IB.L1_GETS::total            5                      
system.ruby.L2Cache_Controller.MT_IB.L1_GETX |           0      0.00%      0.00% |           0      0.00%      0.00% |           0      0.00%      0.00% |           0      0.00%      0.00% |           0      0.00%      0.00% |           0      0.00%      0.00% |           0      0.00%      0.00% |           0      0.00%      0.00% |           0      0.00%      0.00% |           0      0.00%      0.00% |           0      0.00%      0.00% |           0      0.00%      0.00% |           0      0.00%      0.00% |           0      0.00%      0.00% |           0      0.00%      0.00% |           0      0.00%      0.00% |           0      0.00%      0.00% |           0      0.00%      0.00% |           0      0.00%      0.00% |           0      0.00%      0.00% |           0      0.00%      0.00% |           0      0.00%      0.00% |           0      0.00%      0.00% |           0      0.00%      0.00% |           0      0.00%      0.00% |           0      0.00%      0.00% |           0      0.00%      0.00% |           0      0.00%      0.00% |           0      0.00%      0.00% |           0      0.00%      0.00% |           0      0.00%      0.00% |           1    100.00%    100.00%
system.ruby.L2Cache_Controller.MT_IB.L1_GETX::total            1                      
system.ruby.L2Cache_Controller.MT_IB.L1_UPGRADE |           0      0.00%      0.00% |           0      0.00%      0.00% |           1     11.11%     11.11% |           0      0.00%     11.11% |           0      0.00%     11.11% |           0      0.00%     11.11% |           0      0.00%     11.11% |           0      0.00%     11.11% |           0      0.00%     11.11% |           0      0.00%     11.11% |           0      0.00%     11.11% |           1     11.11%     22.22% |           1     11.11%     33.33% |           1     11.11%     44.44% |           0      0.00%     44.44% |           0      0.00%     44.44% |           0      0.00%     44.44% |           1     11.11%     55.56% |           1     11.11%     66.67% |           1     11.11%     77.78% |           0      0.00%     77.78% |           0      0.00%     77.78% |           0      0.00%     77.78% |           0      0.00%     77.78% |           0      0.00%     77.78% |           1     11.11%     88.89% |           0      0.00%     88.89% |           0      0.00%     88.89% |           0      0.00%     88.89% |           1     11.11%    100.00% |           0      0.00%    100.00% |           0      0.00%    100.00%
system.ruby.L2Cache_Controller.MT_IB.L1_UPGRADE::total            9                      
system.ruby.L2Cache_Controller.MT_IB.WB_Data |          58      0.99%      0.99% |          65      1.11%      2.11% |         159      2.72%      4.83% |         188      3.22%      8.05% |         114      1.95%     10.00% |         196      3.36%     13.35% |         209      3.58%     16.93% |         247      4.23%     21.16% |         241      4.13%     25.28% |         196      3.36%     28.64% |         164      2.81%     31.44% |         217      3.71%     35.16% |         201      3.44%     38.60% |         209      3.58%     42.18% |         139      2.38%     44.56% |         115      1.97%     46.53% |         176      3.01%     49.54% |         237      4.06%     53.59% |         230      3.94%     57.53% |         221      3.78%     61.31% |         237      4.06%     65.37% |         187      3.20%     68.57% |         132      2.26%     70.83% |         135      2.31%     73.14% |         242      4.14%     77.29% |         151      2.58%     79.87% |         204      3.49%     83.36% |         208      3.56%     86.92% |         136      2.33%     89.25% |         255      4.36%     93.62% |         135      2.31%     95.93% |         238      4.07%    100.00%
system.ruby.L2Cache_Controller.MT_IB.WB_Data::total         5842                      
system.ruby.L2Cache_Controller.MT_IB.WB_Data_clean |           1      0.25%      0.25% |           3      0.76%      1.02% |          16      4.07%      5.09% |           9      2.29%      7.38% |           6      1.53%      8.91% |           9      2.29%     11.20% |          14      3.56%     14.76% |          18      4.58%     19.34% |          16      4.07%     23.41% |          10      2.54%     25.95% |          21      5.34%     31.30% |          14      3.56%     34.86% |           8      2.04%     36.90% |          17      4.33%     41.22% |           9      2.29%     43.51% |           6      1.53%     45.04% |           9      2.29%     47.33% |          14      3.56%     50.89% |          13      3.31%     54.20% |          10      2.54%     56.74% |          18      4.58%     61.32% |          14      3.56%     64.89% |          14      3.56%     68.45% |          10      2.54%     70.99% |           8      2.04%     73.03% |          10      2.54%     75.57% |          16      4.07%     79.64% |          11      2.80%     82.44% |          16      4.07%     86.51% |          20      5.09%     91.60% |           4      1.02%     92.62% |          29      7.38%    100.00%
system.ruby.L2Cache_Controller.MT_IB.WB_Data_clean::total          393                      
system.ruby.L2Cache_Controller.MT_SB.L1_GETS |          30      2.53%      2.53% |          40      3.38%      5.91% |          33      2.79%      8.70% |          57      4.81%     13.51% |          43      3.63%     17.15% |          34      2.87%     20.02% |          33      2.79%     22.80% |          38      3.21%     26.01% |          33      2.79%     28.80% |          32      2.70%     31.50% |          32      2.70%     34.21% |          34      2.87%     37.08% |          38      3.21%     40.29% |          31      2.62%     42.91% |          44      3.72%     46.62% |          41      3.46%     50.08% |          35      2.96%     53.04% |          51      4.31%     57.35% |          50      4.22%     61.57% |          33      2.79%     64.36% |          33      2.79%     67.15% |          37      3.12%     70.27% |          28      2.36%     72.64% |          23      1.94%     74.58% |          24      2.03%     76.60% |          43      3.63%     80.24% |          43      3.63%     83.87% |          32      2.70%     86.57% |          43      3.63%     90.20% |          29      2.45%     92.65% |          45      3.80%     96.45% |          42      3.55%    100.00%
system.ruby.L2Cache_Controller.MT_SB.L1_GETS::total         1184                      
system.ruby.L2Cache_Controller.MT_SB.L1_GETX |           3      0.65%      0.65% |          16      3.46%      4.10% |          13      2.81%      6.91% |          13      2.81%      9.72% |           7      1.51%     11.23% |          18      3.89%     15.12% |          11      2.38%     17.49% |          13      2.81%     20.30% |          15      3.24%     23.54% |          12      2.59%     26.13% |          17      3.67%     29.81% |           9      1.94%     31.75% |          23      4.97%     36.72% |          13      2.81%     39.52% |          16      3.46%     42.98% |          24      5.18%     48.16% |          15      3.24%     51.40% |          10      2.16%     53.56% |          11      2.38%     55.94% |          13      2.81%     58.75% |          19      4.10%     62.85% |          18      3.89%     66.74% |          16      3.46%     70.19% |          18      3.89%     74.08% |          19      4.10%     78.19% |          14      3.02%     81.21% |          12      2.59%     83.80% |          12      2.59%     86.39% |          19      4.10%     90.50% |          15      3.24%     93.74% |          17      3.67%     97.41% |          12      2.59%    100.00%
system.ruby.L2Cache_Controller.MT_SB.L1_GETX::total          463                      
system.ruby.L2Cache_Controller.MT_SB.L1_UPGRADE |          14      4.07%      4.07% |          17      4.94%      9.01% |           6      1.74%     10.76% |          10      2.91%     13.66% |           7      2.03%     15.70% |          14      4.07%     19.77% |          10      2.91%     22.67% |           8      2.33%     25.00% |           8      2.33%     27.33% |          10      2.91%     30.23% |          16      4.65%     34.88% |           5      1.45%     36.34% |           7      2.03%     38.37% |           8      2.33%     40.70% |          11      3.20%     43.90% |           7      2.03%     45.93% |           9      2.62%     48.55% |          10      2.91%     51.45% |          11      3.20%     54.65% |          21      6.10%     60.76% |          10      2.91%     63.66% |          14      4.07%     67.73% |          14      4.07%     71.80% |          10      2.91%     74.71% |          12      3.49%     78.20% |          11      3.20%     81.40% |          14      4.07%     85.47% |          17      4.94%     90.41% |          12      3.49%     93.90% |           7      2.03%     95.93% |           6      1.74%     97.67% |           8      2.33%    100.00%
system.ruby.L2Cache_Controller.MT_SB.L1_UPGRADE::total          344                      
system.ruby.L2Cache_Controller.MT_SB.Unblock |        7484      3.24%      3.24% |        7293      3.16%      6.40% |        7212      3.12%      9.52% |        7237      3.13%     12.65% |        7403      3.20%     15.85% |        7186      3.11%     18.96% |        7140      3.09%     22.05% |        7135      3.09%     25.14% |        7283      3.15%     28.29% |        7168      3.10%     31.40% |        7221      3.13%     34.52% |        7110      3.08%     37.60% |        7336      3.18%     40.77% |        7101      3.07%     43.85% |        7225      3.13%     46.98% |        7250      3.14%     50.11% |        7390      3.20%     53.31% |        7140      3.09%     56.40% |        7150      3.09%     59.50% |        7142      3.09%     62.59% |        7321      3.17%     65.76% |        7123      3.08%     68.84% |        7210      3.12%     71.96% |        7229      3.13%     75.09% |        7254      3.14%     78.23% |        7174      3.11%     81.33% |        7127      3.08%     84.42% |        7083      3.07%     87.48% |        7429      3.22%     90.70% |        7084      3.07%     93.77% |        7269      3.15%     96.91% |        7136      3.09%    100.00%
system.ruby.L2Cache_Controller.MT_SB.Unblock::total       231045                      
system.ruby.SimicsNetworkPortInterface_Controller.MessageSend |      303235     17.92%     17.92% |      846045     50.00%     67.92% |       67807      4.01%     71.93% |       74190      4.38%     76.31% |       66829      3.95%     80.26% |       72779      4.30%     84.56% |       67803      4.01%     88.57% |       73848      4.36%     92.93% |       57967      3.43%     96.36% |       61587      3.64%    100.00% |           0      0.00%    100.00% |           0      0.00%    100.00% |           0      0.00%    100.00% |           0      0.00%    100.00% |           0      0.00%    100.00% |           0      0.00%    100.00% |           0      0.00%    100.00% |           0      0.00%    100.00% |           0      0.00%    100.00% |           0      0.00%    100.00% |           0      0.00%    100.00% |           0      0.00%    100.00% |           0      0.00%    100.00% |           0      0.00%    100.00% |           0      0.00%    100.00% |           0      0.00%    100.00% |           0      0.00%    100.00% |           0      0.00%    100.00% |           0      0.00%    100.00% |           0      0.00%    100.00% |           0      0.00%    100.00% |           0      0.00%    100.00%
system.ruby.SimicsNetworkPortInterface_Controller.MessageSend::total      1692090                      
system.ruby.SimicsNetworkPortInterface_Controller.MessageRecv |      303235     17.92%     17.92% |      846045     50.00%     67.92% |       67807      4.01%     71.93% |       74190      4.38%     76.31% |       66829      3.95%     80.26% |       72779      4.30%     84.56% |       67803      4.01%     88.57% |       73848      4.36%     92.93% |       57967      3.43%     96.36% |       61587      3.64%    100.00% |           0      0.00%    100.00% |           0      0.00%    100.00% |           0      0.00%    100.00% |           0      0.00%    100.00% |           0      0.00%    100.00% |           0      0.00%    100.00% |           0      0.00%    100.00% |           0      0.00%    100.00% |           0      0.00%    100.00% |           0      0.00%    100.00% |           0      0.00%    100.00% |           0      0.00%    100.00% |           0      0.00%    100.00% |           0      0.00%    100.00% |           0      0.00%    100.00% |           0      0.00%    100.00% |           0      0.00%    100.00% |           0      0.00%    100.00% |           0      0.00%    100.00% |           0      0.00%    100.00% |           0      0.00%    100.00% |           0      0.00%    100.00%
system.ruby.SimicsNetworkPortInterface_Controller.MessageRecv::total      1692090                      
system.ruby.SimicsNetworkPortInterface_Controller.A.MessageSend |      303235     17.92%     17.92% |      846045     50.00%     67.92% |       67807      4.01%     71.93% |       74190      4.38%     76.31% |       66829      3.95%     80.26% |       72779      4.30%     84.56% |       67803      4.01%     88.57% |       73848      4.36%     92.93% |       57967      3.43%     96.36% |       61587      3.64%    100.00% |           0      0.00%    100.00% |           0      0.00%    100.00% |           0      0.00%    100.00% |           0      0.00%    100.00% |           0      0.00%    100.00% |           0      0.00%    100.00% |           0      0.00%    100.00% |           0      0.00%    100.00% |           0      0.00%    100.00% |           0      0.00%    100.00% |           0      0.00%    100.00% |           0      0.00%    100.00% |           0      0.00%    100.00% |           0      0.00%    100.00% |           0      0.00%    100.00% |           0      0.00%    100.00% |           0      0.00%    100.00% |           0      0.00%    100.00% |           0      0.00%    100.00% |           0      0.00%    100.00% |           0      0.00%    100.00% |           0      0.00%    100.00%
system.ruby.SimicsNetworkPortInterface_Controller.A.MessageSend::total      1692090                      
system.ruby.SimicsNetworkPortInterface_Controller.A.MessageRecv |      303235     17.92%     17.92% |      846045     50.00%     67.92% |       67807      4.01%     71.93% |       74190      4.38%     76.31% |       66829      3.95%     80.26% |       72779      4.30%     84.56% |       67803      4.01%     88.57% |       73848      4.36%     92.93% |       57967      3.43%     96.36% |       61587      3.64%    100.00% |           0      0.00%    100.00% |           0      0.00%    100.00% |           0      0.00%    100.00% |           0      0.00%    100.00% |           0      0.00%    100.00% |           0      0.00%    100.00% |           0      0.00%    100.00% |           0      0.00%    100.00% |           0      0.00%    100.00% |           0      0.00%    100.00% |           0      0.00%    100.00% |           0      0.00%    100.00% |           0      0.00%    100.00% |           0      0.00%    100.00% |           0      0.00%    100.00% |           0      0.00%    100.00% |           0      0.00%    100.00% |           0      0.00%    100.00% |           0      0.00%    100.00% |           0      0.00%    100.00% |           0      0.00%    100.00% |           0      0.00%    100.00%
system.ruby.SimicsNetworkPortInterface_Controller.A.MessageRecv::total      1692090                      
system.switch_cpus.kern.inst.arm                    0                       # number of arm instructions executed
system.switch_cpus.kern.inst.quiesce                0                       # number of quiesce instructions executed

---------- End Simulation Statistics   ----------
