
---------- Begin Simulation Statistics ----------
sim_seconds                                  0.093283                       # Number of seconds simulated
sim_ticks                                 93283387500                       # Number of ticks simulated
final_tick                               5269451466000                       # Number of ticks from beginning of simulation (restored from checkpoints and never reset)
sim_freq                                 1000000000000                       # Frequency of simulated ticks
host_inst_rate                                  24363                       # Simulator instruction rate (inst/s)
host_op_rate                                    42979                       # Simulator op (including micro ops) rate (op/s)
host_tick_rate                               53426568                       # Simulator tick rate (ticks/s)
host_mem_usage                                6131168                       # Number of bytes of host memory used
host_seconds                                  1746.01                       # Real time elapsed on the host
sim_insts                                    42537369                       # Number of instructions simulated
sim_ops                                      75042116                       # Number of ops (including micro ops) simulated
system.voltage_domain.voltage                       1                       # Voltage in Volts
system.clk_domain.clock                           500                       # Clock period in ticks
system.mem_ctrls0.bytes_read::ruby.dir_cntrl0     21117504                       # Number of bytes read from this memory
system.mem_ctrls0.bytes_read::total          21117504                       # Number of bytes read from this memory
system.mem_ctrls0.bytes_written::ruby.dir_cntrl0     11913408                       # Number of bytes written to this memory
system.mem_ctrls0.bytes_written::total       11913408                       # Number of bytes written to this memory
system.mem_ctrls0.num_reads::ruby.dir_cntrl0       329961                       # Number of read requests responded to by this memory
system.mem_ctrls0.num_reads::total             329961                       # Number of read requests responded to by this memory
system.mem_ctrls0.num_writes::ruby.dir_cntrl0       186147                       # Number of write requests responded to by this memory
system.mem_ctrls0.num_writes::total            186147                       # Number of write requests responded to by this memory
system.mem_ctrls0.bw_read::ruby.dir_cntrl0    226380115                       # Total read bandwidth from this memory (bytes/s)
system.mem_ctrls0.bw_read::total            226380115                       # Total read bandwidth from this memory (bytes/s)
system.mem_ctrls0.bw_write::ruby.dir_cntrl0    127712000                       # Write bandwidth from this memory (bytes/s)
system.mem_ctrls0.bw_write::total           127712000                       # Write bandwidth from this memory (bytes/s)
system.mem_ctrls0.bw_total::ruby.dir_cntrl0    354092115                       # Total bandwidth to/from this memory (bytes/s)
system.mem_ctrls0.bw_total::total           354092115                       # Total bandwidth to/from this memory (bytes/s)
system.mem_ctrls0.readReqs                     329961                       # Number of read requests accepted
system.mem_ctrls0.writeReqs                    186147                       # Number of write requests accepted
system.mem_ctrls0.readBursts                   329961                       # Number of DRAM read bursts, including those serviced by the write queue
system.mem_ctrls0.writeBursts                  186147                       # Number of DRAM write bursts, including those merged in the write queue
system.mem_ctrls0.bytesReadDRAM              21115136                       # Total number of bytes read from DRAM
system.mem_ctrls0.bytesReadWrQ                   2368                       # Total number of bytes read from write queue
system.mem_ctrls0.bytesWritten               11913408                       # Total number of bytes written to DRAM
system.mem_ctrls0.bytesReadSys               21117504                       # Total read bytes from the system interface side
system.mem_ctrls0.bytesWrittenSys            11913408                       # Total written bytes from the system interface side
system.mem_ctrls0.servicedByWrQ                    37                       # Number of DRAM read bursts serviced by the write queue
system.mem_ctrls0.mergedWrBursts                    0                       # Number of DRAM write bursts merged with an existing one
system.mem_ctrls0.neitherReadNorWriteReqs            0                       # Number of requests that are neither read nor write
system.mem_ctrls0.perBankRdBursts::0            20316                       # Per bank write bursts
system.mem_ctrls0.perBankRdBursts::1            20988                       # Per bank write bursts
system.mem_ctrls0.perBankRdBursts::2            20515                       # Per bank write bursts
system.mem_ctrls0.perBankRdBursts::3            20872                       # Per bank write bursts
system.mem_ctrls0.perBankRdBursts::4            20503                       # Per bank write bursts
system.mem_ctrls0.perBankRdBursts::5            21079                       # Per bank write bursts
system.mem_ctrls0.perBankRdBursts::6            20632                       # Per bank write bursts
system.mem_ctrls0.perBankRdBursts::7            20715                       # Per bank write bursts
system.mem_ctrls0.perBankRdBursts::8            20681                       # Per bank write bursts
system.mem_ctrls0.perBankRdBursts::9            20868                       # Per bank write bursts
system.mem_ctrls0.perBankRdBursts::10           20593                       # Per bank write bursts
system.mem_ctrls0.perBankRdBursts::11           20934                       # Per bank write bursts
system.mem_ctrls0.perBankRdBursts::12           20246                       # Per bank write bursts
system.mem_ctrls0.perBankRdBursts::13           20146                       # Per bank write bursts
system.mem_ctrls0.perBankRdBursts::14           20448                       # Per bank write bursts
system.mem_ctrls0.perBankRdBursts::15           20388                       # Per bank write bursts
system.mem_ctrls0.perBankWrBursts::0            11505                       # Per bank write bursts
system.mem_ctrls0.perBankWrBursts::1            11660                       # Per bank write bursts
system.mem_ctrls0.perBankWrBursts::2            11667                       # Per bank write bursts
system.mem_ctrls0.perBankWrBursts::3            11650                       # Per bank write bursts
system.mem_ctrls0.perBankWrBursts::4            11608                       # Per bank write bursts
system.mem_ctrls0.perBankWrBursts::5            11923                       # Per bank write bursts
system.mem_ctrls0.perBankWrBursts::6            11564                       # Per bank write bursts
system.mem_ctrls0.perBankWrBursts::7            11680                       # Per bank write bursts
system.mem_ctrls0.perBankWrBursts::8            11898                       # Per bank write bursts
system.mem_ctrls0.perBankWrBursts::9            11729                       # Per bank write bursts
system.mem_ctrls0.perBankWrBursts::10           11530                       # Per bank write bursts
system.mem_ctrls0.perBankWrBursts::11           11711                       # Per bank write bursts
system.mem_ctrls0.perBankWrBursts::12           11359                       # Per bank write bursts
system.mem_ctrls0.perBankWrBursts::13           11316                       # Per bank write bursts
system.mem_ctrls0.perBankWrBursts::14           11751                       # Per bank write bursts
system.mem_ctrls0.perBankWrBursts::15           11596                       # Per bank write bursts
system.mem_ctrls0.numRdRetry                     2969                       # Number of times read queue was full causing retry
system.mem_ctrls0.numWrRetry                     1811                       # Number of times write queue was full causing retry
system.mem_ctrls0.totGap                  93282797500                       # Total gap between requests
system.mem_ctrls0.readPktSize::0                    0                       # Read request sizes (log2)
system.mem_ctrls0.readPktSize::1                    0                       # Read request sizes (log2)
system.mem_ctrls0.readPktSize::2                    0                       # Read request sizes (log2)
system.mem_ctrls0.readPktSize::3                    0                       # Read request sizes (log2)
system.mem_ctrls0.readPktSize::4                    0                       # Read request sizes (log2)
system.mem_ctrls0.readPktSize::5                    0                       # Read request sizes (log2)
system.mem_ctrls0.readPktSize::6               329961                       # Read request sizes (log2)
system.mem_ctrls0.writePktSize::0                   0                       # Write request sizes (log2)
system.mem_ctrls0.writePktSize::1                   0                       # Write request sizes (log2)
system.mem_ctrls0.writePktSize::2                   0                       # Write request sizes (log2)
system.mem_ctrls0.writePktSize::3                   0                       # Write request sizes (log2)
system.mem_ctrls0.writePktSize::4                   0                       # Write request sizes (log2)
system.mem_ctrls0.writePktSize::5                   0                       # Write request sizes (log2)
system.mem_ctrls0.writePktSize::6              186147                       # Write request sizes (log2)
system.mem_ctrls0.rdQLenPdf::0                 158602                       # What read queue length does an incoming req see
system.mem_ctrls0.rdQLenPdf::1                  41309                       # What read queue length does an incoming req see
system.mem_ctrls0.rdQLenPdf::2                  30700                       # What read queue length does an incoming req see
system.mem_ctrls0.rdQLenPdf::3                  22095                       # What read queue length does an incoming req see
system.mem_ctrls0.rdQLenPdf::4                  16289                       # What read queue length does an incoming req see
system.mem_ctrls0.rdQLenPdf::5                  12182                       # What read queue length does an incoming req see
system.mem_ctrls0.rdQLenPdf::6                   9383                       # What read queue length does an incoming req see
system.mem_ctrls0.rdQLenPdf::7                   7286                       # What read queue length does an incoming req see
system.mem_ctrls0.rdQLenPdf::8                   5613                       # What read queue length does an incoming req see
system.mem_ctrls0.rdQLenPdf::9                   4477                       # What read queue length does an incoming req see
system.mem_ctrls0.rdQLenPdf::10                  3540                       # What read queue length does an incoming req see
system.mem_ctrls0.rdQLenPdf::11                  2850                       # What read queue length does an incoming req see
system.mem_ctrls0.rdQLenPdf::12                  2152                       # What read queue length does an incoming req see
system.mem_ctrls0.rdQLenPdf::13                  1673                       # What read queue length does an incoming req see
system.mem_ctrls0.rdQLenPdf::14                  1357                       # What read queue length does an incoming req see
system.mem_ctrls0.rdQLenPdf::15                  1157                       # What read queue length does an incoming req see
system.mem_ctrls0.rdQLenPdf::16                   904                       # What read queue length does an incoming req see
system.mem_ctrls0.rdQLenPdf::17                   792                       # What read queue length does an incoming req see
system.mem_ctrls0.rdQLenPdf::18                   626                       # What read queue length does an incoming req see
system.mem_ctrls0.rdQLenPdf::19                   563                       # What read queue length does an incoming req see
system.mem_ctrls0.rdQLenPdf::20                   484                       # What read queue length does an incoming req see
system.mem_ctrls0.rdQLenPdf::21                   397                       # What read queue length does an incoming req see
system.mem_ctrls0.rdQLenPdf::22                   335                       # What read queue length does an incoming req see
system.mem_ctrls0.rdQLenPdf::23                   283                       # What read queue length does an incoming req see
system.mem_ctrls0.rdQLenPdf::24                   261                       # What read queue length does an incoming req see
system.mem_ctrls0.rdQLenPdf::25                   218                       # What read queue length does an incoming req see
system.mem_ctrls0.rdQLenPdf::26                   217                       # What read queue length does an incoming req see
system.mem_ctrls0.rdQLenPdf::27                   202                       # What read queue length does an incoming req see
system.mem_ctrls0.rdQLenPdf::28                   189                       # What read queue length does an incoming req see
system.mem_ctrls0.rdQLenPdf::29                   188                       # What read queue length does an incoming req see
system.mem_ctrls0.rdQLenPdf::30                   261                       # What read queue length does an incoming req see
system.mem_ctrls0.rdQLenPdf::31                  3339                       # What read queue length does an incoming req see
system.mem_ctrls0.wrQLenPdf::0                  33477                       # What write queue length does an incoming req see
system.mem_ctrls0.wrQLenPdf::1                  36014                       # What write queue length does an incoming req see
system.mem_ctrls0.wrQLenPdf::2                  36414                       # What write queue length does an incoming req see
system.mem_ctrls0.wrQLenPdf::3                  36149                       # What write queue length does an incoming req see
system.mem_ctrls0.wrQLenPdf::4                  35699                       # What write queue length does an incoming req see
system.mem_ctrls0.wrQLenPdf::5                   3031                       # What write queue length does an incoming req see
system.mem_ctrls0.wrQLenPdf::6                   2077                       # What write queue length does an incoming req see
system.mem_ctrls0.wrQLenPdf::7                   3286                       # What write queue length does an incoming req see
system.mem_ctrls0.bytesPerActivate::samples       154725                       # Bytes accessed per row activation
system.mem_ctrls0.bytesPerActivate::mean   213.459906                       # Bytes accessed per row activation
system.mem_ctrls0.bytesPerActivate::gmean   159.716059                       # Bytes accessed per row activation
system.mem_ctrls0.bytesPerActivate::stdev   178.958491                       # Bytes accessed per row activation
system.mem_ctrls0.bytesPerActivate::0-127        49249     31.83%     31.83% # Bytes accessed per row activation
system.mem_ctrls0.bytesPerActivate::128-255        45869     29.65%     61.48% # Bytes accessed per row activation
system.mem_ctrls0.bytesPerActivate::256-383        42857     27.70%     89.17% # Bytes accessed per row activation
system.mem_ctrls0.bytesPerActivate::384-511         6529      4.22%     93.39% # Bytes accessed per row activation
system.mem_ctrls0.bytesPerActivate::512-639         3864      2.50%     95.89% # Bytes accessed per row activation
system.mem_ctrls0.bytesPerActivate::640-767         2059      1.33%     97.22% # Bytes accessed per row activation
system.mem_ctrls0.bytesPerActivate::768-895         1432      0.93%     98.15% # Bytes accessed per row activation
system.mem_ctrls0.bytesPerActivate::896-1023          923      0.60%     98.74% # Bytes accessed per row activation
system.mem_ctrls0.bytesPerActivate::1024-1151         1943      1.26%    100.00% # Bytes accessed per row activation
system.mem_ctrls0.bytesPerActivate::total       154725                       # Bytes accessed per row activation
system.mem_ctrls0.rdPerTurnAround::samples        33708                       # Reads before turning the bus around for writes
system.mem_ctrls0.rdPerTurnAround::mean      9.787677                       # Reads before turning the bus around for writes
system.mem_ctrls0.rdPerTurnAround::stdev    23.709951                       # Reads before turning the bus around for writes
system.mem_ctrls0.rdPerTurnAround::0-127        33700     99.98%     99.98% # Reads before turning the bus around for writes
system.mem_ctrls0.rdPerTurnAround::128-255            7      0.02%    100.00% # Reads before turning the bus around for writes
system.mem_ctrls0.rdPerTurnAround::3968-4095            1      0.00%    100.00% # Reads before turning the bus around for writes
system.mem_ctrls0.rdPerTurnAround::total        33708                       # Reads before turning the bus around for writes
system.mem_ctrls0.wrPerTurnAround::samples        33708                       # Writes before turning the bus around for reads
system.mem_ctrls0.wrPerTurnAround::mean      5.522339                       # Writes before turning the bus around for reads
system.mem_ctrls0.wrPerTurnAround::gmean     5.387627                       # Writes before turning the bus around for reads
system.mem_ctrls0.wrPerTurnAround::stdev     1.581595                       # Writes before turning the bus around for reads
system.mem_ctrls0.wrPerTurnAround::4-7          31508     93.47%     93.47% # Writes before turning the bus around for reads
system.mem_ctrls0.wrPerTurnAround::8-11          1563      4.64%     98.11% # Writes before turning the bus around for reads
system.mem_ctrls0.wrPerTurnAround::12-15          335      0.99%     99.10% # Writes before turning the bus around for reads
system.mem_ctrls0.wrPerTurnAround::16-19          302      0.90%    100.00% # Writes before turning the bus around for reads
system.mem_ctrls0.wrPerTurnAround::total        33708                       # Writes before turning the bus around for reads
system.mem_ctrls0.totQLat                 12438905175                       # Total ticks spent queuing
system.mem_ctrls0.totMemAccLat            18624980175                       # Total ticks spent from burst creation until serviced by the DRAM
system.mem_ctrls0.totBusLat                1649620000                       # Total ticks spent in databus transfers
system.mem_ctrls0.avgQLat                    37702.34                       # Average queueing delay per DRAM burst
system.mem_ctrls0.avgBusLat                   5000.00                       # Average bus latency per DRAM burst
system.mem_ctrls0.avgMemAccLat               56452.34                       # Average memory access latency per DRAM burst
system.mem_ctrls0.avgRdBW                      226.35                       # Average DRAM read bandwidth in MiByte/s
system.mem_ctrls0.avgWrBW                      127.71                       # Average achieved write bandwidth in MiByte/s
system.mem_ctrls0.avgRdBWSys                   226.38                       # Average system read bandwidth in MiByte/s
system.mem_ctrls0.avgWrBWSys                   127.71                       # Average system write bandwidth in MiByte/s
system.mem_ctrls0.peakBW                     12800.00                       # Theoretical peak bandwidth in MiByte/s
system.mem_ctrls0.busUtil                        2.77                       # Data bus utilization in percentage
system.mem_ctrls0.busUtilRead                    1.77                       # Data bus utilization in percentage for reads
system.mem_ctrls0.busUtilWrite                   1.00                       # Data bus utilization in percentage for writes
system.mem_ctrls0.avgRdQLen                      1.20                       # Average read queue length when enqueuing
system.mem_ctrls0.avgWrQLen                      2.96                       # Average write queue length when enqueuing
system.mem_ctrls0.readRowHits                  248961                       # Number of row buffer hits during reads
system.mem_ctrls0.writeRowHits                 112372                       # Number of row buffer hits during writes
system.mem_ctrls0.readRowHitRate                75.46                       # Row buffer hit rate for reads
system.mem_ctrls0.writeRowHitRate               60.37                       # Row buffer hit rate for writes
system.mem_ctrls0.avgGap                    180742.79                       # Average gap between requests
system.mem_ctrls0.pageHitRate                   70.02                       # Row buffer hit rate, read and write combined
system.mem_ctrls0.memoryStateTime::IDLE   15194060000                       # Time in different power states
system.mem_ctrls0.memoryStateTime::REF     3114800000                       # Time in different power states
system.mem_ctrls0.memoryStateTime::PRE_PDN            0                       # Time in different power states
system.mem_ctrls0.memoryStateTime::ACT    74971677000                       # Time in different power states
system.mem_ctrls0.memoryStateTime::ACT_PDN            0                       # Time in different power states
system.mem_ctrls0.actEnergy::0              591071040                       # Energy for activate commands per rank (pJ)
system.mem_ctrls0.actEnergy::1              578574360                       # Energy for activate commands per rank (pJ)
system.mem_ctrls0.preEnergy::0              322509000                       # Energy for precharge commands per rank (pJ)
system.mem_ctrls0.preEnergy::1              315690375                       # Energy for precharge commands per rank (pJ)
system.mem_ctrls0.readEnergy::0            1291758000                       # Energy for read commands per rank (pJ)
system.mem_ctrls0.readEnergy::1            1281508800                       # Energy for read commands per rank (pJ)
system.mem_ctrls0.writeEnergy::0            604292400                       # Energy for write commands per rank (pJ)
system.mem_ctrls0.writeEnergy::1            601875360                       # Energy for write commands per rank (pJ)
system.mem_ctrls0.refreshEnergy::0         6092548800                       # Energy for refresh commands per rank (pJ)
system.mem_ctrls0.refreshEnergy::1         6092548800                       # Energy for refresh commands per rank (pJ)
system.mem_ctrls0.actBackEnergy::0        38853363150                       # Energy for active background per rank (pJ)
system.mem_ctrls0.actBackEnergy::1        38137905135                       # Energy for active background per rank (pJ)
system.mem_ctrls0.preBackEnergy::0        21885823500                       # Energy for precharge background per rank (pJ)
system.mem_ctrls0.preBackEnergy::1        22513418250                       # Energy for precharge background per rank (pJ)
system.mem_ctrls0.totalEnergy::0          69641365890                       # Total energy per rank (pJ)
system.mem_ctrls0.totalEnergy::1          69521521080                       # Total energy per rank (pJ)
system.mem_ctrls0.averagePower::0          746.587833                       # Core power per rank (mW)
system.mem_ctrls0.averagePower::1          745.303041                       # Core power per rank (mW)
system.mem_ctrls1.bytes_read::ruby.dir_cntrl1     20691136                       # Number of bytes read from this memory
system.mem_ctrls1.bytes_read::total          20691136                       # Number of bytes read from this memory
system.mem_ctrls1.bytes_written::ruby.dir_cntrl1     11495552                       # Number of bytes written to this memory
system.mem_ctrls1.bytes_written::total       11495552                       # Number of bytes written to this memory
system.mem_ctrls1.num_reads::ruby.dir_cntrl1       323299                       # Number of read requests responded to by this memory
system.mem_ctrls1.num_reads::total             323299                       # Number of read requests responded to by this memory
system.mem_ctrls1.num_writes::ruby.dir_cntrl1       179618                       # Number of write requests responded to by this memory
system.mem_ctrls1.num_writes::total            179618                       # Number of write requests responded to by this memory
system.mem_ctrls1.bw_read::ruby.dir_cntrl1    221809441                       # Total read bandwidth from this memory (bytes/s)
system.mem_ctrls1.bw_read::total            221809441                       # Total read bandwidth from this memory (bytes/s)
system.mem_ctrls1.bw_write::ruby.dir_cntrl1    123232575                       # Write bandwidth from this memory (bytes/s)
system.mem_ctrls1.bw_write::total           123232575                       # Write bandwidth from this memory (bytes/s)
system.mem_ctrls1.bw_total::ruby.dir_cntrl1    345042015                       # Total bandwidth to/from this memory (bytes/s)
system.mem_ctrls1.bw_total::total           345042015                       # Total bandwidth to/from this memory (bytes/s)
system.mem_ctrls1.readReqs                     323299                       # Number of read requests accepted
system.mem_ctrls1.writeReqs                    179618                       # Number of write requests accepted
system.mem_ctrls1.readBursts                   323299                       # Number of DRAM read bursts, including those serviced by the write queue
system.mem_ctrls1.writeBursts                  179618                       # Number of DRAM write bursts, including those merged in the write queue
system.mem_ctrls1.bytesReadDRAM              20689216                       # Total number of bytes read from DRAM
system.mem_ctrls1.bytesReadWrQ                   1920                       # Total number of bytes read from write queue
system.mem_ctrls1.bytesWritten               11495552                       # Total number of bytes written to DRAM
system.mem_ctrls1.bytesReadSys               20691136                       # Total read bytes from the system interface side
system.mem_ctrls1.bytesWrittenSys            11495552                       # Total written bytes from the system interface side
system.mem_ctrls1.servicedByWrQ                    30                       # Number of DRAM read bursts serviced by the write queue
system.mem_ctrls1.mergedWrBursts                    0                       # Number of DRAM write bursts merged with an existing one
system.mem_ctrls1.neitherReadNorWriteReqs            0                       # Number of requests that are neither read nor write
system.mem_ctrls1.perBankRdBursts::0            19934                       # Per bank write bursts
system.mem_ctrls1.perBankRdBursts::1            20549                       # Per bank write bursts
system.mem_ctrls1.perBankRdBursts::2            20088                       # Per bank write bursts
system.mem_ctrls1.perBankRdBursts::3            20458                       # Per bank write bursts
system.mem_ctrls1.perBankRdBursts::4            20148                       # Per bank write bursts
system.mem_ctrls1.perBankRdBursts::5            20607                       # Per bank write bursts
system.mem_ctrls1.perBankRdBursts::6            20210                       # Per bank write bursts
system.mem_ctrls1.perBankRdBursts::7            20362                       # Per bank write bursts
system.mem_ctrls1.perBankRdBursts::8            20251                       # Per bank write bursts
system.mem_ctrls1.perBankRdBursts::9            20440                       # Per bank write bursts
system.mem_ctrls1.perBankRdBursts::10           20182                       # Per bank write bursts
system.mem_ctrls1.perBankRdBursts::11           20522                       # Per bank write bursts
system.mem_ctrls1.perBankRdBursts::12           19828                       # Per bank write bursts
system.mem_ctrls1.perBankRdBursts::13           19755                       # Per bank write bursts
system.mem_ctrls1.perBankRdBursts::14           19935                       # Per bank write bursts
system.mem_ctrls1.perBankRdBursts::15           20000                       # Per bank write bursts
system.mem_ctrls1.perBankWrBursts::0            11107                       # Per bank write bursts
system.mem_ctrls1.perBankWrBursts::1            11261                       # Per bank write bursts
system.mem_ctrls1.perBankWrBursts::2            11269                       # Per bank write bursts
system.mem_ctrls1.perBankWrBursts::3            11246                       # Per bank write bursts
system.mem_ctrls1.perBankWrBursts::4            11219                       # Per bank write bursts
system.mem_ctrls1.perBankWrBursts::5            11529                       # Per bank write bursts
system.mem_ctrls1.perBankWrBursts::6            11139                       # Per bank write bursts
system.mem_ctrls1.perBankWrBursts::7            11269                       # Per bank write bursts
system.mem_ctrls1.perBankWrBursts::8            11492                       # Per bank write bursts
system.mem_ctrls1.perBankWrBursts::9            11305                       # Per bank write bursts
system.mem_ctrls1.perBankWrBursts::10           11125                       # Per bank write bursts
system.mem_ctrls1.perBankWrBursts::11           11303                       # Per bank write bursts
system.mem_ctrls1.perBankWrBursts::12           10949                       # Per bank write bursts
system.mem_ctrls1.perBankWrBursts::13           10907                       # Per bank write bursts
system.mem_ctrls1.perBankWrBursts::14           11296                       # Per bank write bursts
system.mem_ctrls1.perBankWrBursts::15           11202                       # Per bank write bursts
system.mem_ctrls1.numRdRetry                     1824                       # Number of times read queue was full causing retry
system.mem_ctrls1.numWrRetry                     1701                       # Number of times write queue was full causing retry
system.mem_ctrls1.totGap                  93282557500                       # Total gap between requests
system.mem_ctrls1.readPktSize::0                    0                       # Read request sizes (log2)
system.mem_ctrls1.readPktSize::1                    0                       # Read request sizes (log2)
system.mem_ctrls1.readPktSize::2                    0                       # Read request sizes (log2)
system.mem_ctrls1.readPktSize::3                    0                       # Read request sizes (log2)
system.mem_ctrls1.readPktSize::4                    0                       # Read request sizes (log2)
system.mem_ctrls1.readPktSize::5                    0                       # Read request sizes (log2)
system.mem_ctrls1.readPktSize::6               323299                       # Read request sizes (log2)
system.mem_ctrls1.writePktSize::0                   0                       # Write request sizes (log2)
system.mem_ctrls1.writePktSize::1                   0                       # Write request sizes (log2)
system.mem_ctrls1.writePktSize::2                   0                       # Write request sizes (log2)
system.mem_ctrls1.writePktSize::3                   0                       # Write request sizes (log2)
system.mem_ctrls1.writePktSize::4                   0                       # Write request sizes (log2)
system.mem_ctrls1.writePktSize::5                   0                       # Write request sizes (log2)
system.mem_ctrls1.writePktSize::6              179618                       # Write request sizes (log2)
system.mem_ctrls1.rdQLenPdf::0                 155752                       # What read queue length does an incoming req see
system.mem_ctrls1.rdQLenPdf::1                  38553                       # What read queue length does an incoming req see
system.mem_ctrls1.rdQLenPdf::2                  29542                       # What read queue length does an incoming req see
system.mem_ctrls1.rdQLenPdf::3                  21995                       # What read queue length does an incoming req see
system.mem_ctrls1.rdQLenPdf::4                  16308                       # What read queue length does an incoming req see
system.mem_ctrls1.rdQLenPdf::5                  12260                       # What read queue length does an incoming req see
system.mem_ctrls1.rdQLenPdf::6                   9332                       # What read queue length does an incoming req see
system.mem_ctrls1.rdQLenPdf::7                   7298                       # What read queue length does an incoming req see
system.mem_ctrls1.rdQLenPdf::8                   5589                       # What read queue length does an incoming req see
system.mem_ctrls1.rdQLenPdf::9                   4480                       # What read queue length does an incoming req see
system.mem_ctrls1.rdQLenPdf::10                  3508                       # What read queue length does an incoming req see
system.mem_ctrls1.rdQLenPdf::11                  2788                       # What read queue length does an incoming req see
system.mem_ctrls1.rdQLenPdf::12                  2215                       # What read queue length does an incoming req see
system.mem_ctrls1.rdQLenPdf::13                  1787                       # What read queue length does an incoming req see
system.mem_ctrls1.rdQLenPdf::14                  1457                       # What read queue length does an incoming req see
system.mem_ctrls1.rdQLenPdf::15                  1245                       # What read queue length does an incoming req see
system.mem_ctrls1.rdQLenPdf::16                  1032                       # What read queue length does an incoming req see
system.mem_ctrls1.rdQLenPdf::17                   891                       # What read queue length does an incoming req see
system.mem_ctrls1.rdQLenPdf::18                   753                       # What read queue length does an incoming req see
system.mem_ctrls1.rdQLenPdf::19                   642                       # What read queue length does an incoming req see
system.mem_ctrls1.rdQLenPdf::20                   545                       # What read queue length does an incoming req see
system.mem_ctrls1.rdQLenPdf::21                   454                       # What read queue length does an incoming req see
system.mem_ctrls1.rdQLenPdf::22                   384                       # What read queue length does an incoming req see
system.mem_ctrls1.rdQLenPdf::23                   375                       # What read queue length does an incoming req see
system.mem_ctrls1.rdQLenPdf::24                   357                       # What read queue length does an incoming req see
system.mem_ctrls1.rdQLenPdf::25                   332                       # What read queue length does an incoming req see
system.mem_ctrls1.rdQLenPdf::26                   289                       # What read queue length does an incoming req see
system.mem_ctrls1.rdQLenPdf::27                   252                       # What read queue length does an incoming req see
system.mem_ctrls1.rdQLenPdf::28                   243                       # What read queue length does an incoming req see
system.mem_ctrls1.rdQLenPdf::29                   241                       # What read queue length does an incoming req see
system.mem_ctrls1.rdQLenPdf::30                   243                       # What read queue length does an incoming req see
system.mem_ctrls1.rdQLenPdf::31                  2127                       # What read queue length does an incoming req see
system.mem_ctrls1.wrQLenPdf::0                  32279                       # What write queue length does an incoming req see
system.mem_ctrls1.wrQLenPdf::1                  34565                       # What write queue length does an incoming req see
system.mem_ctrls1.wrQLenPdf::2                  34955                       # What write queue length does an incoming req see
system.mem_ctrls1.wrQLenPdf::3                  34883                       # What write queue length does an incoming req see
system.mem_ctrls1.wrQLenPdf::4                  34487                       # What write queue length does an incoming req see
system.mem_ctrls1.wrQLenPdf::5                   3157                       # What write queue length does an incoming req see
system.mem_ctrls1.wrQLenPdf::6                   2246                       # What write queue length does an incoming req see
system.mem_ctrls1.wrQLenPdf::7                   3046                       # What write queue length does an incoming req see
system.mem_ctrls1.bytesPerActivate::samples       145846                       # Bytes accessed per row activation
system.mem_ctrls1.bytesPerActivate::mean   220.671558                       # Bytes accessed per row activation
system.mem_ctrls1.bytesPerActivate::gmean   164.885618                       # Bytes accessed per row activation
system.mem_ctrls1.bytesPerActivate::stdev   182.837913                       # Bytes accessed per row activation
system.mem_ctrls1.bytesPerActivate::0-127        44699     30.65%     30.65% # Bytes accessed per row activation
system.mem_ctrls1.bytesPerActivate::128-255        41306     28.32%     58.97% # Bytes accessed per row activation
system.mem_ctrls1.bytesPerActivate::256-383        42863     29.39%     88.36% # Bytes accessed per row activation
system.mem_ctrls1.bytesPerActivate::384-511         6583      4.51%     92.87% # Bytes accessed per row activation
system.mem_ctrls1.bytesPerActivate::512-639         3898      2.67%     95.55% # Bytes accessed per row activation
system.mem_ctrls1.bytesPerActivate::640-767         2163      1.48%     97.03% # Bytes accessed per row activation
system.mem_ctrls1.bytesPerActivate::768-895         1468      1.01%     98.03% # Bytes accessed per row activation
system.mem_ctrls1.bytesPerActivate::896-1023          943      0.65%     98.68% # Bytes accessed per row activation
system.mem_ctrls1.bytesPerActivate::1024-1151         1923      1.32%    100.00% # Bytes accessed per row activation
system.mem_ctrls1.bytesPerActivate::total       145846                       # Bytes accessed per row activation
system.mem_ctrls1.rdPerTurnAround::samples        32510                       # Reads before turning the bus around for writes
system.mem_ctrls1.rdPerTurnAround::mean      9.943679                       # Reads before turning the bus around for writes
system.mem_ctrls1.rdPerTurnAround::stdev    19.799060                       # Reads before turning the bus around for writes
system.mem_ctrls1.rdPerTurnAround::0-127        32504     99.98%     99.98% # Reads before turning the bus around for writes
system.mem_ctrls1.rdPerTurnAround::128-255            4      0.01%     99.99% # Reads before turning the bus around for writes
system.mem_ctrls1.rdPerTurnAround::1152-1279            1      0.00%    100.00% # Reads before turning the bus around for writes
system.mem_ctrls1.rdPerTurnAround::2816-2943            1      0.00%    100.00% # Reads before turning the bus around for writes
system.mem_ctrls1.rdPerTurnAround::total        32510                       # Reads before turning the bus around for writes
system.mem_ctrls1.wrPerTurnAround::samples        32510                       # Writes before turning the bus around for reads
system.mem_ctrls1.wrPerTurnAround::mean      5.525008                       # Writes before turning the bus around for reads
system.mem_ctrls1.wrPerTurnAround::gmean     5.388399                       # Writes before turning the bus around for reads
system.mem_ctrls1.wrPerTurnAround::stdev     1.587378                       # Writes before turning the bus around for reads
system.mem_ctrls1.wrPerTurnAround::4-7          30293     93.18%     93.18% # Writes before turning the bus around for reads
system.mem_ctrls1.wrPerTurnAround::8-11          1625      5.00%     98.18% # Writes before turning the bus around for reads
system.mem_ctrls1.wrPerTurnAround::12-15          305      0.94%     99.12% # Writes before turning the bus around for reads
system.mem_ctrls1.wrPerTurnAround::16-19          287      0.88%    100.00% # Writes before turning the bus around for reads
system.mem_ctrls1.wrPerTurnAround::total        32510                       # Writes before turning the bus around for reads
system.mem_ctrls1.totQLat                 11955109936                       # Total ticks spent queuing
system.mem_ctrls1.totMemAccLat            18016403686                       # Total ticks spent from burst creation until serviced by the DRAM
system.mem_ctrls1.totBusLat                1616345000                       # Total ticks spent in databus transfers
system.mem_ctrls1.avgQLat                    36981.93                       # Average queueing delay per DRAM burst
system.mem_ctrls1.avgBusLat                   5000.00                       # Average bus latency per DRAM burst
system.mem_ctrls1.avgMemAccLat               55731.93                       # Average memory access latency per DRAM burst
system.mem_ctrls1.avgRdBW                      221.79                       # Average DRAM read bandwidth in MiByte/s
system.mem_ctrls1.avgWrBW                      123.23                       # Average achieved write bandwidth in MiByte/s
system.mem_ctrls1.avgRdBWSys                   221.81                       # Average system read bandwidth in MiByte/s
system.mem_ctrls1.avgWrBWSys                   123.23                       # Average system write bandwidth in MiByte/s
system.mem_ctrls1.peakBW                     12800.00                       # Theoretical peak bandwidth in MiByte/s
system.mem_ctrls1.busUtil                        2.70                       # Data bus utilization in percentage
system.mem_ctrls1.busUtilRead                    1.73                       # Data bus utilization in percentage for reads
system.mem_ctrls1.busUtilWrite                   0.96                       # Data bus utilization in percentage for writes
system.mem_ctrls1.avgRdQLen                      1.18                       # Average read queue length when enqueuing
system.mem_ctrls1.avgWrQLen                      2.97                       # Average write queue length when enqueuing
system.mem_ctrls1.readRowHits                  245700                       # Number of row buffer hits during reads
system.mem_ctrls1.writeRowHits                 111333                       # Number of row buffer hits during writes
system.mem_ctrls1.readRowHitRate                76.00                       # Row buffer hit rate for reads
system.mem_ctrls1.writeRowHitRate               61.98                       # Row buffer hit rate for writes
system.mem_ctrls1.avgGap                    185483.01                       # Average gap between requests
system.mem_ctrls1.pageHitRate                   71.00                       # Row buffer hit rate, read and write combined
system.mem_ctrls1.memoryStateTime::IDLE   15394685750                       # Time in different power states
system.mem_ctrls1.memoryStateTime::REF     3114800000                       # Time in different power states
system.mem_ctrls1.memoryStateTime::PRE_PDN            0                       # Time in different power states
system.mem_ctrls1.memoryStateTime::ACT    74770711750                       # Time in different power states
system.mem_ctrls1.memoryStateTime::ACT_PDN            0                       # Time in different power states
system.mem_ctrls1.actEnergy::0              556627680                       # Energy for activate commands per rank (pJ)
system.mem_ctrls1.actEnergy::1              545937840                       # Energy for activate commands per rank (pJ)
system.mem_ctrls1.preEnergy::0              303715500                       # Energy for precharge commands per rank (pJ)
system.mem_ctrls1.preEnergy::1              297882750                       # Energy for precharge commands per rank (pJ)
system.mem_ctrls1.readEnergy::0            1266298800                       # Energy for read commands per rank (pJ)
system.mem_ctrls1.readEnergy::1            1255082400                       # Energy for read commands per rank (pJ)
system.mem_ctrls1.writeEnergy::0            583446240                       # Energy for write commands per rank (pJ)
system.mem_ctrls1.writeEnergy::1            580446000                       # Energy for write commands per rank (pJ)
system.mem_ctrls1.refreshEnergy::0         6092548800                       # Energy for refresh commands per rank (pJ)
system.mem_ctrls1.refreshEnergy::1         6092548800                       # Energy for refresh commands per rank (pJ)
system.mem_ctrls1.actBackEnergy::0        38344369680                       # Energy for active background per rank (pJ)
system.mem_ctrls1.actBackEnergy::1        37390270905                       # Energy for active background per rank (pJ)
system.mem_ctrls1.preBackEnergy::0        22332309000                       # Energy for precharge background per rank (pJ)
system.mem_ctrls1.preBackEnergy::1        23169237750                       # Energy for precharge background per rank (pJ)
system.mem_ctrls1.totalEnergy::0          69479315700                       # Total energy per rank (pJ)
system.mem_ctrls1.totalEnergy::1          69331406445                       # Total energy per rank (pJ)
system.mem_ctrls1.averagePower::0          744.850579                       # Core power per rank (mW)
system.mem_ctrls1.averagePower::1          743.264923                       # Core power per rank (mW)
system.mem_ctrls2.bytes_read::ruby.dir_cntrl2     20696576                       # Number of bytes read from this memory
system.mem_ctrls2.bytes_read::total          20696576                       # Number of bytes read from this memory
system.mem_ctrls2.bytes_written::ruby.dir_cntrl2     11494336                       # Number of bytes written to this memory
system.mem_ctrls2.bytes_written::total       11494336                       # Number of bytes written to this memory
system.mem_ctrls2.num_reads::ruby.dir_cntrl2       323384                       # Number of read requests responded to by this memory
system.mem_ctrls2.num_reads::total             323384                       # Number of read requests responded to by this memory
system.mem_ctrls2.num_writes::ruby.dir_cntrl2       179599                       # Number of write requests responded to by this memory
system.mem_ctrls2.num_writes::total            179599                       # Number of write requests responded to by this memory
system.mem_ctrls2.bw_read::ruby.dir_cntrl2    221867758                       # Total read bandwidth from this memory (bytes/s)
system.mem_ctrls2.bw_read::total            221867758                       # Total read bandwidth from this memory (bytes/s)
system.mem_ctrls2.bw_write::ruby.dir_cntrl2    123219539                       # Write bandwidth from this memory (bytes/s)
system.mem_ctrls2.bw_write::total           123219539                       # Write bandwidth from this memory (bytes/s)
system.mem_ctrls2.bw_total::ruby.dir_cntrl2    345087296                       # Total bandwidth to/from this memory (bytes/s)
system.mem_ctrls2.bw_total::total           345087296                       # Total bandwidth to/from this memory (bytes/s)
system.mem_ctrls2.readReqs                     323384                       # Number of read requests accepted
system.mem_ctrls2.writeReqs                    179599                       # Number of write requests accepted
system.mem_ctrls2.readBursts                   323384                       # Number of DRAM read bursts, including those serviced by the write queue
system.mem_ctrls2.writeBursts                  179599                       # Number of DRAM write bursts, including those merged in the write queue
system.mem_ctrls2.bytesReadDRAM              20695552                       # Total number of bytes read from DRAM
system.mem_ctrls2.bytesReadWrQ                   1024                       # Total number of bytes read from write queue
system.mem_ctrls2.bytesWritten               11494272                       # Total number of bytes written to DRAM
system.mem_ctrls2.bytesReadSys               20696576                       # Total read bytes from the system interface side
system.mem_ctrls2.bytesWrittenSys            11494336                       # Total written bytes from the system interface side
system.mem_ctrls2.servicedByWrQ                    16                       # Number of DRAM read bursts serviced by the write queue
system.mem_ctrls2.mergedWrBursts                    0                       # Number of DRAM write bursts merged with an existing one
system.mem_ctrls2.neitherReadNorWriteReqs            0                       # Number of requests that are neither read nor write
system.mem_ctrls2.perBankRdBursts::0            19939                       # Per bank write bursts
system.mem_ctrls2.perBankRdBursts::1            20572                       # Per bank write bursts
system.mem_ctrls2.perBankRdBursts::2            20126                       # Per bank write bursts
system.mem_ctrls2.perBankRdBursts::3            20505                       # Per bank write bursts
system.mem_ctrls2.perBankRdBursts::4            20149                       # Per bank write bursts
system.mem_ctrls2.perBankRdBursts::5            20589                       # Per bank write bursts
system.mem_ctrls2.perBankRdBursts::6            20194                       # Per bank write bursts
system.mem_ctrls2.perBankRdBursts::7            20334                       # Per bank write bursts
system.mem_ctrls2.perBankRdBursts::8            20227                       # Per bank write bursts
system.mem_ctrls2.perBankRdBursts::9            20458                       # Per bank write bursts
system.mem_ctrls2.perBankRdBursts::10           20208                       # Per bank write bursts
system.mem_ctrls2.perBankRdBursts::11           20574                       # Per bank write bursts
system.mem_ctrls2.perBankRdBursts::12           19847                       # Per bank write bursts
system.mem_ctrls2.perBankRdBursts::13           19686                       # Per bank write bursts
system.mem_ctrls2.perBankRdBursts::14           19948                       # Per bank write bursts
system.mem_ctrls2.perBankRdBursts::15           20012                       # Per bank write bursts
system.mem_ctrls2.perBankWrBursts::0            11105                       # Per bank write bursts
system.mem_ctrls2.perBankWrBursts::1            11262                       # Per bank write bursts
system.mem_ctrls2.perBankWrBursts::2            11260                       # Per bank write bursts
system.mem_ctrls2.perBankWrBursts::3            11268                       # Per bank write bursts
system.mem_ctrls2.perBankWrBursts::4            11205                       # Per bank write bursts
system.mem_ctrls2.perBankWrBursts::5            11503                       # Per bank write bursts
system.mem_ctrls2.perBankWrBursts::6            11153                       # Per bank write bursts
system.mem_ctrls2.perBankWrBursts::7            11264                       # Per bank write bursts
system.mem_ctrls2.perBankWrBursts::8            11466                       # Per bank write bursts
system.mem_ctrls2.perBankWrBursts::9            11315                       # Per bank write bursts
system.mem_ctrls2.perBankWrBursts::10           11119                       # Per bank write bursts
system.mem_ctrls2.perBankWrBursts::11           11313                       # Per bank write bursts
system.mem_ctrls2.perBankWrBursts::12           10958                       # Per bank write bursts
system.mem_ctrls2.perBankWrBursts::13           10910                       # Per bank write bursts
system.mem_ctrls2.perBankWrBursts::14           11294                       # Per bank write bursts
system.mem_ctrls2.perBankWrBursts::15           11203                       # Per bank write bursts
system.mem_ctrls2.numRdRetry                     2062                       # Number of times read queue was full causing retry
system.mem_ctrls2.numWrRetry                     1624                       # Number of times write queue was full causing retry
system.mem_ctrls2.totGap                  93283246000                       # Total gap between requests
system.mem_ctrls2.readPktSize::0                    0                       # Read request sizes (log2)
system.mem_ctrls2.readPktSize::1                    0                       # Read request sizes (log2)
system.mem_ctrls2.readPktSize::2                    0                       # Read request sizes (log2)
system.mem_ctrls2.readPktSize::3                    0                       # Read request sizes (log2)
system.mem_ctrls2.readPktSize::4                    0                       # Read request sizes (log2)
system.mem_ctrls2.readPktSize::5                    0                       # Read request sizes (log2)
system.mem_ctrls2.readPktSize::6               323384                       # Read request sizes (log2)
system.mem_ctrls2.writePktSize::0                   0                       # Write request sizes (log2)
system.mem_ctrls2.writePktSize::1                   0                       # Write request sizes (log2)
system.mem_ctrls2.writePktSize::2                   0                       # Write request sizes (log2)
system.mem_ctrls2.writePktSize::3                   0                       # Write request sizes (log2)
system.mem_ctrls2.writePktSize::4                   0                       # Write request sizes (log2)
system.mem_ctrls2.writePktSize::5                   0                       # Write request sizes (log2)
system.mem_ctrls2.writePktSize::6              179599                       # Write request sizes (log2)
system.mem_ctrls2.rdQLenPdf::0                 155618                       # What read queue length does an incoming req see
system.mem_ctrls2.rdQLenPdf::1                  37835                       # What read queue length does an incoming req see
system.mem_ctrls2.rdQLenPdf::2                  29522                       # What read queue length does an incoming req see
system.mem_ctrls2.rdQLenPdf::3                  22130                       # What read queue length does an incoming req see
system.mem_ctrls2.rdQLenPdf::4                  16235                       # What read queue length does an incoming req see
system.mem_ctrls2.rdQLenPdf::5                  12345                       # What read queue length does an incoming req see
system.mem_ctrls2.rdQLenPdf::6                   9545                       # What read queue length does an incoming req see
system.mem_ctrls2.rdQLenPdf::7                   7546                       # What read queue length does an incoming req see
system.mem_ctrls2.rdQLenPdf::8                   5820                       # What read queue length does an incoming req see
system.mem_ctrls2.rdQLenPdf::9                   4486                       # What read queue length does an incoming req see
system.mem_ctrls2.rdQLenPdf::10                  3558                       # What read queue length does an incoming req see
system.mem_ctrls2.rdQLenPdf::11                  2843                       # What read queue length does an incoming req see
system.mem_ctrls2.rdQLenPdf::12                  2246                       # What read queue length does an incoming req see
system.mem_ctrls2.rdQLenPdf::13                  1829                       # What read queue length does an incoming req see
system.mem_ctrls2.rdQLenPdf::14                  1558                       # What read queue length does an incoming req see
system.mem_ctrls2.rdQLenPdf::15                  1266                       # What read queue length does an incoming req see
system.mem_ctrls2.rdQLenPdf::16                  1038                       # What read queue length does an incoming req see
system.mem_ctrls2.rdQLenPdf::17                   833                       # What read queue length does an incoming req see
system.mem_ctrls2.rdQLenPdf::18                   727                       # What read queue length does an incoming req see
system.mem_ctrls2.rdQLenPdf::19                   605                       # What read queue length does an incoming req see
system.mem_ctrls2.rdQLenPdf::20                   558                       # What read queue length does an incoming req see
system.mem_ctrls2.rdQLenPdf::21                   494                       # What read queue length does an incoming req see
system.mem_ctrls2.rdQLenPdf::22                   416                       # What read queue length does an incoming req see
system.mem_ctrls2.rdQLenPdf::23                   341                       # What read queue length does an incoming req see
system.mem_ctrls2.rdQLenPdf::24                   285                       # What read queue length does an incoming req see
system.mem_ctrls2.rdQLenPdf::25                   260                       # What read queue length does an incoming req see
system.mem_ctrls2.rdQLenPdf::26                   224                       # What read queue length does an incoming req see
system.mem_ctrls2.rdQLenPdf::27                   230                       # What read queue length does an incoming req see
system.mem_ctrls2.rdQLenPdf::28                   208                       # What read queue length does an incoming req see
system.mem_ctrls2.rdQLenPdf::29                   196                       # What read queue length does an incoming req see
system.mem_ctrls2.rdQLenPdf::30                   203                       # What read queue length does an incoming req see
system.mem_ctrls2.rdQLenPdf::31                  2368                       # What read queue length does an incoming req see
system.mem_ctrls2.wrQLenPdf::0                  32242                       # What write queue length does an incoming req see
system.mem_ctrls2.wrQLenPdf::1                  34530                       # What write queue length does an incoming req see
system.mem_ctrls2.wrQLenPdf::2                  34941                       # What write queue length does an incoming req see
system.mem_ctrls2.wrQLenPdf::3                  35007                       # What write queue length does an incoming req see
system.mem_ctrls2.wrQLenPdf::4                  34544                       # What write queue length does an incoming req see
system.mem_ctrls2.wrQLenPdf::5                   3213                       # What write queue length does an incoming req see
system.mem_ctrls2.wrQLenPdf::6                   2173                       # What write queue length does an incoming req see
system.mem_ctrls2.wrQLenPdf::7                   2949                       # What write queue length does an incoming req see
system.mem_ctrls2.bytesPerActivate::samples       145954                       # Bytes accessed per row activation
system.mem_ctrls2.bytesPerActivate::mean   220.544665                       # Bytes accessed per row activation
system.mem_ctrls2.bytesPerActivate::gmean   164.687243                       # Bytes accessed per row activation
system.mem_ctrls2.bytesPerActivate::stdev   182.807411                       # Bytes accessed per row activation
system.mem_ctrls2.bytesPerActivate::0-127        44972     30.81%     30.81% # Bytes accessed per row activation
system.mem_ctrls2.bytesPerActivate::128-255        40951     28.06%     58.87% # Bytes accessed per row activation
system.mem_ctrls2.bytesPerActivate::256-383        43026     29.48%     88.35% # Bytes accessed per row activation
system.mem_ctrls2.bytesPerActivate::384-511         6448      4.42%     92.77% # Bytes accessed per row activation
system.mem_ctrls2.bytesPerActivate::512-639         4047      2.77%     95.54% # Bytes accessed per row activation
system.mem_ctrls2.bytesPerActivate::640-767         2254      1.54%     97.08% # Bytes accessed per row activation
system.mem_ctrls2.bytesPerActivate::768-895         1397      0.96%     98.04% # Bytes accessed per row activation
system.mem_ctrls2.bytesPerActivate::896-1023          959      0.66%     98.70% # Bytes accessed per row activation
system.mem_ctrls2.bytesPerActivate::1024-1151         1900      1.30%    100.00% # Bytes accessed per row activation
system.mem_ctrls2.bytesPerActivate::total       145954                       # Bytes accessed per row activation
system.mem_ctrls2.rdPerTurnAround::samples        32463                       # Reads before turning the bus around for writes
system.mem_ctrls2.rdPerTurnAround::mean      9.960478                       # Reads before turning the bus around for writes
system.mem_ctrls2.rdPerTurnAround::stdev    19.903599                       # Reads before turning the bus around for writes
system.mem_ctrls2.rdPerTurnAround::0-127        32457     99.98%     99.98% # Reads before turning the bus around for writes
system.mem_ctrls2.rdPerTurnAround::128-255            4      0.01%     99.99% # Reads before turning the bus around for writes
system.mem_ctrls2.rdPerTurnAround::1152-1279            1      0.00%    100.00% # Reads before turning the bus around for writes
system.mem_ctrls2.rdPerTurnAround::2816-2943            1      0.00%    100.00% # Reads before turning the bus around for writes
system.mem_ctrls2.rdPerTurnAround::total        32463                       # Reads before turning the bus around for writes
system.mem_ctrls2.wrPerTurnAround::samples        32463                       # Writes before turning the bus around for reads
system.mem_ctrls2.wrPerTurnAround::mean      5.532391                       # Writes before turning the bus around for reads
system.mem_ctrls2.wrPerTurnAround::gmean     5.392349                       # Writes before turning the bus around for reads
system.mem_ctrls2.wrPerTurnAround::stdev     1.609224                       # Writes before turning the bus around for reads
system.mem_ctrls2.wrPerTurnAround::4-7          30194     93.01%     93.01% # Writes before turning the bus around for reads
system.mem_ctrls2.wrPerTurnAround::8-11          1632      5.03%     98.04% # Writes before turning the bus around for reads
system.mem_ctrls2.wrPerTurnAround::12-15          343      1.06%     99.09% # Writes before turning the bus around for reads
system.mem_ctrls2.wrPerTurnAround::16-19          294      0.91%    100.00% # Writes before turning the bus around for reads
system.mem_ctrls2.wrPerTurnAround::total        32463                       # Writes before turning the bus around for reads
system.mem_ctrls2.totQLat                 12099770401                       # Total ticks spent queuing
system.mem_ctrls2.totMemAccLat            18162920401                       # Total ticks spent from burst creation until serviced by the DRAM
system.mem_ctrls2.totBusLat                1616840000                       # Total ticks spent in databus transfers
system.mem_ctrls2.avgQLat                    37417.96                       # Average queueing delay per DRAM burst
system.mem_ctrls2.avgBusLat                   5000.00                       # Average bus latency per DRAM burst
system.mem_ctrls2.avgMemAccLat               56167.96                       # Average memory access latency per DRAM burst
system.mem_ctrls2.avgRdBW                      221.86                       # Average DRAM read bandwidth in MiByte/s
system.mem_ctrls2.avgWrBW                      123.22                       # Average achieved write bandwidth in MiByte/s
system.mem_ctrls2.avgRdBWSys                   221.87                       # Average system read bandwidth in MiByte/s
system.mem_ctrls2.avgWrBWSys                   123.22                       # Average system write bandwidth in MiByte/s
system.mem_ctrls2.peakBW                     12800.00                       # Theoretical peak bandwidth in MiByte/s
system.mem_ctrls2.busUtil                        2.70                       # Data bus utilization in percentage
system.mem_ctrls2.busUtilRead                    1.73                       # Data bus utilization in percentage for reads
system.mem_ctrls2.busUtilWrite                   0.96                       # Data bus utilization in percentage for writes
system.mem_ctrls2.avgRdQLen                      1.18                       # Average read queue length when enqueuing
system.mem_ctrls2.avgWrQLen                      2.97                       # Average write queue length when enqueuing
system.mem_ctrls2.readRowHits                  245763                       # Number of row buffer hits during reads
system.mem_ctrls2.writeRowHits                 111243                       # Number of row buffer hits during writes
system.mem_ctrls2.readRowHitRate                76.00                       # Row buffer hit rate for reads
system.mem_ctrls2.writeRowHitRate               61.94                       # Row buffer hit rate for writes
system.mem_ctrls2.avgGap                    185460.04                       # Average gap between requests
system.mem_ctrls2.pageHitRate                   70.98                       # Row buffer hit rate, read and write combined
system.mem_ctrls2.memoryStateTime::IDLE   15438291250                       # Time in different power states
system.mem_ctrls2.memoryStateTime::REF     3114800000                       # Time in different power states
system.mem_ctrls2.memoryStateTime::PRE_PDN            0                       # Time in different power states
system.mem_ctrls2.memoryStateTime::ACT    74726990750                       # Time in different power states
system.mem_ctrls2.memoryStateTime::ACT_PDN            0                       # Time in different power states
system.mem_ctrls2.actEnergy::0              557459280                       # Energy for activate commands per rank (pJ)
system.mem_ctrls2.actEnergy::1              545937840                       # Energy for activate commands per rank (pJ)
system.mem_ctrls2.preEnergy::0              304169250                       # Energy for precharge commands per rank (pJ)
system.mem_ctrls2.preEnergy::1              297882750                       # Energy for precharge commands per rank (pJ)
system.mem_ctrls2.readEnergy::0            1266712200                       # Energy for read commands per rank (pJ)
system.mem_ctrls2.readEnergy::1            1255464600                       # Energy for read commands per rank (pJ)
system.mem_ctrls2.writeEnergy::0            583329600                       # Energy for write commands per rank (pJ)
system.mem_ctrls2.writeEnergy::1            580465440                       # Energy for write commands per rank (pJ)
system.mem_ctrls2.refreshEnergy::0         6092548800                       # Energy for refresh commands per rank (pJ)
system.mem_ctrls2.refreshEnergy::1         6092548800                       # Energy for refresh commands per rank (pJ)
system.mem_ctrls2.actBackEnergy::0        38234783475                       # Energy for active background per rank (pJ)
system.mem_ctrls2.actBackEnergy::1        37319240925                       # Energy for active background per rank (pJ)
system.mem_ctrls2.preBackEnergy::0        22428437250                       # Energy for precharge background per rank (pJ)
system.mem_ctrls2.preBackEnergy::1        23231544750                       # Energy for precharge background per rank (pJ)
system.mem_ctrls2.totalEnergy::0          69467439855                       # Total energy per rank (pJ)
system.mem_ctrls2.totalEnergy::1          69323085105                       # Total energy per rank (pJ)
system.mem_ctrls2.averagePower::0          744.723265                       # Core power per rank (mW)
system.mem_ctrls2.averagePower::1          743.175715                       # Core power per rank (mW)
system.mem_ctrls3.bytes_read::ruby.dir_cntrl3     20670592                       # Number of bytes read from this memory
system.mem_ctrls3.bytes_read::total          20670592                       # Number of bytes read from this memory
system.mem_ctrls3.bytes_written::ruby.dir_cntrl3     11491392                       # Number of bytes written to this memory
system.mem_ctrls3.bytes_written::total       11491392                       # Number of bytes written to this memory
system.mem_ctrls3.num_reads::ruby.dir_cntrl3       322978                       # Number of read requests responded to by this memory
system.mem_ctrls3.num_reads::total             322978                       # Number of read requests responded to by this memory
system.mem_ctrls3.num_writes::ruby.dir_cntrl3       179553                       # Number of write requests responded to by this memory
system.mem_ctrls3.num_writes::total            179553                       # Number of write requests responded to by this memory
system.mem_ctrls3.bw_read::ruby.dir_cntrl3    221589208                       # Total read bandwidth from this memory (bytes/s)
system.mem_ctrls3.bw_read::total            221589208                       # Total read bandwidth from this memory (bytes/s)
system.mem_ctrls3.bw_write::ruby.dir_cntrl3    123187979                       # Write bandwidth from this memory (bytes/s)
system.mem_ctrls3.bw_write::total           123187979                       # Write bandwidth from this memory (bytes/s)
system.mem_ctrls3.bw_total::ruby.dir_cntrl3    344777188                       # Total bandwidth to/from this memory (bytes/s)
system.mem_ctrls3.bw_total::total           344777188                       # Total bandwidth to/from this memory (bytes/s)
system.mem_ctrls3.readReqs                     322979                       # Number of read requests accepted
system.mem_ctrls3.writeReqs                    179553                       # Number of write requests accepted
system.mem_ctrls3.readBursts                   322979                       # Number of DRAM read bursts, including those serviced by the write queue
system.mem_ctrls3.writeBursts                  179553                       # Number of DRAM write bursts, including those merged in the write queue
system.mem_ctrls3.bytesReadDRAM              20669952                       # Total number of bytes read from DRAM
system.mem_ctrls3.bytesReadWrQ                    704                       # Total number of bytes read from write queue
system.mem_ctrls3.bytesWritten               11491392                       # Total number of bytes written to DRAM
system.mem_ctrls3.bytesReadSys               20670656                       # Total read bytes from the system interface side
system.mem_ctrls3.bytesWrittenSys            11491392                       # Total written bytes from the system interface side
system.mem_ctrls3.servicedByWrQ                    11                       # Number of DRAM read bursts serviced by the write queue
system.mem_ctrls3.mergedWrBursts                    0                       # Number of DRAM write bursts merged with an existing one
system.mem_ctrls3.neitherReadNorWriteReqs            0                       # Number of requests that are neither read nor write
system.mem_ctrls3.perBankRdBursts::0            19924                       # Per bank write bursts
system.mem_ctrls3.perBankRdBursts::1            20548                       # Per bank write bursts
system.mem_ctrls3.perBankRdBursts::2            20021                       # Per bank write bursts
system.mem_ctrls3.perBankRdBursts::3            20476                       # Per bank write bursts
system.mem_ctrls3.perBankRdBursts::4            20083                       # Per bank write bursts
system.mem_ctrls3.perBankRdBursts::5            20558                       # Per bank write bursts
system.mem_ctrls3.perBankRdBursts::6            20236                       # Per bank write bursts
system.mem_ctrls3.perBankRdBursts::7            20322                       # Per bank write bursts
system.mem_ctrls3.perBankRdBursts::8            20205                       # Per bank write bursts
system.mem_ctrls3.perBankRdBursts::9            20442                       # Per bank write bursts
system.mem_ctrls3.perBankRdBursts::10           20218                       # Per bank write bursts
system.mem_ctrls3.perBankRdBursts::11           20473                       # Per bank write bursts
system.mem_ctrls3.perBankRdBursts::12           19800                       # Per bank write bursts
system.mem_ctrls3.perBankRdBursts::13           19676                       # Per bank write bursts
system.mem_ctrls3.perBankRdBursts::14           19978                       # Per bank write bursts
system.mem_ctrls3.perBankRdBursts::15           20008                       # Per bank write bursts
system.mem_ctrls3.perBankWrBursts::0            11098                       # Per bank write bursts
system.mem_ctrls3.perBankWrBursts::1            11263                       # Per bank write bursts
system.mem_ctrls3.perBankWrBursts::2            11267                       # Per bank write bursts
system.mem_ctrls3.perBankWrBursts::3            11250                       # Per bank write bursts
system.mem_ctrls3.perBankWrBursts::4            11212                       # Per bank write bursts
system.mem_ctrls3.perBankWrBursts::5            11511                       # Per bank write bursts
system.mem_ctrls3.perBankWrBursts::6            11146                       # Per bank write bursts
system.mem_ctrls3.perBankWrBursts::7            11255                       # Per bank write bursts
system.mem_ctrls3.perBankWrBursts::8            11455                       # Per bank write bursts
system.mem_ctrls3.perBankWrBursts::9            11318                       # Per bank write bursts
system.mem_ctrls3.perBankWrBursts::10           11112                       # Per bank write bursts
system.mem_ctrls3.perBankWrBursts::11           11321                       # Per bank write bursts
system.mem_ctrls3.perBankWrBursts::12           10959                       # Per bank write bursts
system.mem_ctrls3.perBankWrBursts::13           10905                       # Per bank write bursts
system.mem_ctrls3.perBankWrBursts::14           11290                       # Per bank write bursts
system.mem_ctrls3.perBankWrBursts::15           11191                       # Per bank write bursts
system.mem_ctrls3.numRdRetry                     2764                       # Number of times read queue was full causing retry
system.mem_ctrls3.numWrRetry                     1749                       # Number of times write queue was full causing retry
system.mem_ctrls3.totGap                  93282646000                       # Total gap between requests
system.mem_ctrls3.readPktSize::0                    0                       # Read request sizes (log2)
system.mem_ctrls3.readPktSize::1                    0                       # Read request sizes (log2)
system.mem_ctrls3.readPktSize::2                    0                       # Read request sizes (log2)
system.mem_ctrls3.readPktSize::3                    0                       # Read request sizes (log2)
system.mem_ctrls3.readPktSize::4                    0                       # Read request sizes (log2)
system.mem_ctrls3.readPktSize::5                    0                       # Read request sizes (log2)
system.mem_ctrls3.readPktSize::6               322979                       # Read request sizes (log2)
system.mem_ctrls3.writePktSize::0                   0                       # Write request sizes (log2)
system.mem_ctrls3.writePktSize::1                   0                       # Write request sizes (log2)
system.mem_ctrls3.writePktSize::2                   0                       # Write request sizes (log2)
system.mem_ctrls3.writePktSize::3                   0                       # Write request sizes (log2)
system.mem_ctrls3.writePktSize::4                   0                       # Write request sizes (log2)
system.mem_ctrls3.writePktSize::5                   0                       # Write request sizes (log2)
system.mem_ctrls3.writePktSize::6              179553                       # Write request sizes (log2)
system.mem_ctrls3.rdQLenPdf::0                 155244                       # What read queue length does an incoming req see
system.mem_ctrls3.rdQLenPdf::1                  38344                       # What read queue length does an incoming req see
system.mem_ctrls3.rdQLenPdf::2                  29447                       # What read queue length does an incoming req see
system.mem_ctrls3.rdQLenPdf::3                  21969                       # What read queue length does an incoming req see
system.mem_ctrls3.rdQLenPdf::4                  16320                       # What read queue length does an incoming req see
system.mem_ctrls3.rdQLenPdf::5                  12256                       # What read queue length does an incoming req see
system.mem_ctrls3.rdQLenPdf::6                   9450                       # What read queue length does an incoming req see
system.mem_ctrls3.rdQLenPdf::7                   7381                       # What read queue length does an incoming req see
system.mem_ctrls3.rdQLenPdf::8                   5877                       # What read queue length does an incoming req see
system.mem_ctrls3.rdQLenPdf::9                   4436                       # What read queue length does an incoming req see
system.mem_ctrls3.rdQLenPdf::10                  3384                       # What read queue length does an incoming req see
system.mem_ctrls3.rdQLenPdf::11                  2677                       # What read queue length does an incoming req see
system.mem_ctrls3.rdQLenPdf::12                  2221                       # What read queue length does an incoming req see
system.mem_ctrls3.rdQLenPdf::13                  1760                       # What read queue length does an incoming req see
system.mem_ctrls3.rdQLenPdf::14                  1422                       # What read queue length does an incoming req see
system.mem_ctrls3.rdQLenPdf::15                  1190                       # What read queue length does an incoming req see
system.mem_ctrls3.rdQLenPdf::16                  1000                       # What read queue length does an incoming req see
system.mem_ctrls3.rdQLenPdf::17                   864                       # What read queue length does an incoming req see
system.mem_ctrls3.rdQLenPdf::18                   753                       # What read queue length does an incoming req see
system.mem_ctrls3.rdQLenPdf::19                   609                       # What read queue length does an incoming req see
system.mem_ctrls3.rdQLenPdf::20                   545                       # What read queue length does an incoming req see
system.mem_ctrls3.rdQLenPdf::21                   439                       # What read queue length does an incoming req see
system.mem_ctrls3.rdQLenPdf::22                   360                       # What read queue length does an incoming req see
system.mem_ctrls3.rdQLenPdf::23                   307                       # What read queue length does an incoming req see
system.mem_ctrls3.rdQLenPdf::24                   260                       # What read queue length does an incoming req see
[...]
system.ruby.L2Cache_Controller.MT_MB.L1_GETS::total          518                      
system.ruby.L2Cache_Controller.MT_MB.L1_PUTX |           2      4.08%      4.08% |           2      4.08%      8.16% |           1      2.04%     10.20% |           0      0.00%     10.20% |           1      2.04%     12.24% |           1      2.04%     14.29% |           2      4.08%     18.37% |           1      2.04%     20.41% |           2      4.08%     24.49% |           3      6.12%     30.61% |           0      0.00%     30.61% |           1      2.04%     32.65% |           2      4.08%     36.73% |           1      2.04%     38.78% |           3      6.12%     44.90% |           1      2.04%     46.94% |           2      4.08%     51.02% |           0      0.00%     51.02% |           1      2.04%     53.06% |           2      4.08%     57.14% |           4      8.16%     65.31% |           2      4.08%     69.39% |           2      4.08%     73.47% |           4      8.16%     81.63% |           1      2.04%     83.67% |           2      4.08%     87.76% |           0      0.00%     87.76% |           1      2.04%     89.80% |           2      4.08%     93.88% |           0      0.00%     93.88% |           2      4.08%     97.96% |           1      2.04%    100.00%
system.ruby.L2Cache_Controller.MT_MB.L1_PUTX::total           49                      
system.ruby.L2Cache_Controller.MT_MB.Exclusive_Unblock |      152674      5.69%      5.69% |       82759      3.09%      8.78% |       81176      3.03%     11.81% |       81923      3.06%     14.86% |       81342      3.03%     17.90% |       80847      3.02%     20.91% |       80925      3.02%     23.93% |       80478      3.00%     26.93% |       80833      3.01%     29.95% |       81919      3.06%     33.00% |       83118      3.10%     36.10% |       82163      3.06%     39.16% |       81759      3.05%     42.21% |       80475      3.00%     45.21% |       79983      2.98%     48.20% |       80386      3.00%     51.20% |       81506      3.04%     54.24% |       81102      3.02%     57.26% |       81704      3.05%     60.31% |       81626      3.04%     63.35% |       81465      3.04%     66.39% |       83883      3.13%     69.52% |       81851      3.05%     72.57% |       80963      3.02%     75.59% |       81201      3.03%     78.62% |       81608      3.04%     81.66% |       81237      3.03%     84.69% |       80636      3.01%     87.70% |       81103      3.02%     90.72% |       80664      3.01%     93.73% |       83312      3.11%     96.84% |       84788      3.16%    100.00%
system.ruby.L2Cache_Controller.MT_MB.Exclusive_Unblock::total      2681409                      
system.ruby.L2Cache_Controller.MT_IIB.L1_GETS |           0      0.00%      0.00% |           0      0.00%      0.00% |           0      0.00%      0.00% |           0      0.00%      0.00% |           0      0.00%      0.00% |           0      0.00%      0.00% |           0      0.00%      0.00% |           0      0.00%      0.00% |           0      0.00%      0.00% |           0      0.00%      0.00% |           0      0.00%      0.00% |           0      0.00%      0.00% |           0      0.00%      0.00% |           0      0.00%      0.00% |           0      0.00%      0.00% |           0      0.00%      0.00% |           0      0.00%      0.00% |           1     33.33%     33.33% |           0      0.00%     33.33% |           0      0.00%     33.33% |           0      0.00%     33.33% |           0      0.00%     33.33% |           1     33.33%     66.67% |           0      0.00%     66.67% |           0      0.00%     66.67% |           0      0.00%     66.67% |           0      0.00%     66.67% |           0      0.00%     66.67% |           0      0.00%     66.67% |           1     33.33%    100.00% |           0      0.00%    100.00% |           0      0.00%    100.00%
system.ruby.L2Cache_Controller.MT_IIB.L1_GETS::total            3                      
system.ruby.L2Cache_Controller.MT_IIB.L1_PUTX |           5      1.38%      1.38% |           4      1.10%      2.48% |           5      1.38%      3.86% |          11      3.03%      6.89% |          10      2.75%      9.64% |           5      1.38%     11.02% |           9      2.48%     13.50% |          13      3.58%     17.08% |          11      3.03%     20.11% |           6      1.65%     21.76% |          12      3.31%     25.07% |          16      4.41%     29.48% |          13      3.58%     33.06% |          14      3.86%     36.91% |           7      1.93%     38.84% |          16      4.41%     43.25% |          14      3.86%     47.11% |           9      2.48%     49.59% |          18      4.96%     54.55% |          18      4.96%     59.50% |          15      4.13%     63.64% |          10      2.75%     66.39% |           8      2.20%     68.60% |          18      4.96%     73.55% |          15      4.13%     77.69% |          11      3.03%     80.72% |          18      4.96%     85.67% |          17      4.68%     90.36% |          10      2.75%     93.11% |           6      1.65%     94.77% |           7      1.93%     96.69% |          12      3.31%    100.00%
system.ruby.L2Cache_Controller.MT_IIB.L1_PUTX::total          363                      
system.ruby.L2Cache_Controller.MT_IIB.WB_Data |           0      0.00%      0.00% |           0      0.00%      0.00% |           0      0.00%      0.00% |           0      0.00%      0.00% |           0      0.00%      0.00% |           0      0.00%      0.00% |           0      0.00%      0.00% |           0      0.00%      0.00% |           0      0.00%      0.00% |           0      0.00%      0.00% |           0      0.00%      0.00% |           0      0.00%      0.00% |           0      0.00%      0.00% |           0      0.00%      0.00% |           0      0.00%      0.00% |           0      0.00%      0.00% |           0      0.00%      0.00% |           0      0.00%      0.00% |           0      0.00%      0.00% |           0      0.00%      0.00% |           0      0.00%      0.00% |           0      0.00%      0.00% |           0      0.00%      0.00% |           0      0.00%      0.00% |           0      0.00%      0.00% |           2    100.00%    100.00% |           0      0.00%    100.00% |           0      0.00%    100.00% |           0      0.00%    100.00% |           0      0.00%    100.00% |           0      0.00%    100.00% |           0      0.00%    100.00%
system.ruby.L2Cache_Controller.MT_IIB.WB_Data::total            2                      
system.ruby.L2Cache_Controller.MT_IIB.WB_Data_clean |        1856      3.17%      3.17% |        1809      3.09%      6.25% |        1847      3.15%      9.40% |        1818      3.10%     12.50% |        1800      3.07%     15.57% |        1837      3.13%     18.71% |        1854      3.16%     21.87% |        1840      3.14%     25.01% |        1801      3.07%     28.08% |        1770      3.02%     31.10% |        1879      3.21%     34.31% |        1864      3.18%     37.49% |        1832      3.13%     40.61% |        1818      3.10%     43.71% |        1882      3.21%     46.92% |        1884      3.21%     50.14% |        1884      3.21%     53.35% |        1813      3.09%     56.44% |        1859      3.17%     59.61% |        1846      3.15%     62.76% |        1782      3.04%     65.80% |        1813      3.09%     68.90% |        1842      3.14%     72.04% |        1868      3.19%     75.22% |        1824      3.11%     78.34% |        1769      3.02%     81.35% |        1817      3.10%     84.45% |        1810      3.09%     87.54% |        1807      3.08%     90.62% |        1783      3.04%     93.66% |        1872      3.19%     96.86% |        1842      3.14%    100.00%
system.ruby.L2Cache_Controller.MT_IIB.WB_Data_clean::total        58622                      
system.ruby.L2Cache_Controller.MT_IIB.Unblock |          24      1.23%      1.23% |          14      0.72%      1.95% |          53      2.72%      4.67% |          44      2.26%      6.93% |          48      2.47%      9.40% |          62      3.18%     12.58% |          82      4.21%     16.80% |          79      4.06%     20.85% |         112      5.75%     26.61% |          95      4.88%     31.48% |          54      2.77%     34.26% |          43      2.21%     36.47% |          57      2.93%     39.39% |          83      4.26%     43.66% |          56      2.88%     46.53% |          33      1.69%     48.23% |          63      3.24%     51.46% |          82      4.21%     55.68% |          72      3.70%     59.37% |          64      3.29%     62.66% |          93      4.78%     67.44% |          77      3.95%     71.39% |          49      2.52%     73.91% |          44      2.26%     76.17% |          59      3.03%     79.20% |          57      2.93%     82.13% |          63      3.24%     85.36% |          51      2.62%     87.98% |          43      2.21%     90.19% |          73      3.75%     93.94% |          38      1.95%     95.89% |          80      4.11%    100.00%
system.ruby.L2Cache_Controller.MT_IIB.Unblock::total         1947                      
system.ruby.L2Cache_Controller.MT_IB.WB_Data_clean |          24      1.23%      1.23% |          14      0.72%      1.95% |          53      2.72%      4.67% |          44      2.26%      6.93% |          48      2.47%      9.40% |          62      3.18%     12.58% |          82      4.21%     16.80% |          79      4.06%     20.85% |         112      5.75%     26.61% |          95      4.88%     31.48% |          54      2.77%     34.26% |          43      2.21%     36.47% |          57      2.93%     39.39% |          83      4.26%     43.66% |          56      2.88%     46.53% |          33      1.69%     48.23% |          63      3.24%     51.46% |          82      4.21%     55.68% |          72      3.70%     59.37% |          64      3.29%     62.66% |          93      4.78%     67.44% |          77      3.95%     71.39% |          49      2.52%     73.91% |          44      2.26%     76.17% |          59      3.03%     79.20% |          57      2.93%     82.13% |          63      3.24%     85.36% |          51      2.62%     87.98% |          43      2.21%     90.19% |          73      3.75%     93.94% |          38      1.95%     95.89% |          80      4.11%    100.00%
system.ruby.L2Cache_Controller.MT_IB.WB_Data_clean::total         1947                      
system.ruby.L2Cache_Controller.MT_SB.L1_GETS |           0      0.00%      0.00% |           0      0.00%      0.00% |           0      0.00%      0.00% |           0      0.00%      0.00% |           0      0.00%      0.00% |           0      0.00%      0.00% |           0      0.00%      0.00% |           0      0.00%      0.00% |           0      0.00%      0.00% |           0      0.00%      0.00% |           0      0.00%      0.00% |           0      0.00%      0.00% |           0      0.00%      0.00% |           0      0.00%      0.00% |           0      0.00%      0.00% |           0      0.00%      0.00% |           0      0.00%      0.00% |           0      0.00%      0.00% |           0      0.00%      0.00% |           0      0.00%      0.00% |           0      0.00%      0.00% |           0      0.00%      0.00% |           0      0.00%      0.00% |           1    100.00%    100.00% |           0      0.00%    100.00% |           0      0.00%    100.00% |           0      0.00%    100.00% |           0      0.00%    100.00% |           0      0.00%    100.00% |           0      0.00%    100.00% |           0      0.00%    100.00% |           0      0.00%    100.00%
system.ruby.L2Cache_Controller.MT_SB.L1_GETS::total            1                      
system.ruby.L2Cache_Controller.MT_SB.L1_PUTX |           0      0.00%      0.00% |           0      0.00%      0.00% |           1      4.55%      4.55% |           0      0.00%      4.55% |           1      4.55%      9.09% |           0      0.00%      9.09% |           0      0.00%      9.09% |           0      0.00%      9.09% |           0      0.00%      9.09% |           0      0.00%      9.09% |           0      0.00%      9.09% |           0      0.00%      9.09% |           4     18.18%     27.27% |           1      4.55%     31.82% |           0      0.00%     31.82% |           0      0.00%     31.82% |           0      0.00%     31.82% |           0      0.00%     31.82% |           0      0.00%     31.82% |           1      4.55%     36.36% |           0      0.00%     36.36% |           4     18.18%     54.55% |           0      0.00%     54.55% |           1      4.55%     59.09% |           2      9.09%     68.18% |           0      0.00%     68.18% |           0      0.00%     68.18% |           3     13.64%     81.82% |           1      4.55%     86.36% |           1      4.55%     90.91% |           2      9.09%    100.00% |           0      0.00%    100.00%
system.ruby.L2Cache_Controller.MT_SB.L1_PUTX::total           22                      
system.ruby.L2Cache_Controller.MT_SB.Unblock |        1856      3.17%      3.17% |        1809      3.09%      6.25% |        1847      3.15%      9.40% |        1818      3.10%     12.50% |        1800      3.07%     15.57% |        1837      3.13%     18.71% |        1854      3.16%     21.87% |        1840      3.14%     25.01% |        1801      3.07%     28.08% |        1770      3.02%     31.10% |        1879      3.21%     34.31% |        1864      3.18%     37.48% |        1832      3.12%     40.61% |        1818      3.10%     43.71% |        1882      3.21%     46.92% |        1884      3.21%     50.13% |        1884      3.21%     53.35% |        1813      3.09%     56.44% |        1859      3.17%     59.61% |        1846      3.15%     62.76% |        1782      3.04%     65.80% |        1813      3.09%     68.89% |        1842      3.14%     72.04% |        1868      3.19%     75.22% |        1824      3.11%     78.33% |        1771      3.02%     81.35% |        1817      3.10%     84.45% |        1810      3.09%     87.54% |        1807      3.08%     90.62% |        1783      3.04%     93.66% |        1872      3.19%     96.86% |        1842      3.14%    100.00%
system.ruby.L2Cache_Controller.MT_SB.Unblock::total        58624                      
system.ruby.SimicsNetworkPortInterface_Controller.MessageSend |      547010     19.13%     19.13% |     1429514     50.00%     69.13% |      104814      3.67%     72.80% |      110374      3.86%     76.66% |      111431      3.90%     80.56% |      117516      4.11%     84.67% |      111192      3.89%     88.56% |      121354      4.24%     92.80% |      105384      3.69%     96.49% |      100439      3.51%    100.00% |           0      0.00%    100.00% |           0      0.00%    100.00% |           0      0.00%    100.00% |           0      0.00%    100.00% |           0      0.00%    100.00% |           0      0.00%    100.00% |           0      0.00%    100.00% |           0      0.00%    100.00% |           0      0.00%    100.00% |           0      0.00%    100.00% |           0      0.00%    100.00% |           0      0.00%    100.00% |           0      0.00%    100.00% |           0      0.00%    100.00% |           0      0.00%    100.00% |           0      0.00%    100.00% |           0      0.00%    100.00% |           0      0.00%    100.00% |           0      0.00%    100.00% |           0      0.00%    100.00% |           0      0.00%    100.00% |           0      0.00%    100.00%
system.ruby.SimicsNetworkPortInterface_Controller.MessageSend::total      2859028                      
system.ruby.SimicsNetworkPortInterface_Controller.MessageRecv |      547010     19.13%     19.13% |     1429514     50.00%     69.13% |      104814      3.67%     72.80% |      110374      3.86%     76.66% |      111431      3.90%     80.56% |      117516      4.11%     84.67% |      111192      3.89%     88.56% |      121354      4.24%     92.80% |      105384      3.69%     96.49% |      100439      3.51%    100.00% |           0      0.00%    100.00% |           0      0.00%    100.00% |           0      0.00%    100.00% |           0      0.00%    100.00% |           0      0.00%    100.00% |           0      0.00%    100.00% |           0      0.00%    100.00% |           0      0.00%    100.00% |           0      0.00%    100.00% |           0      0.00%    100.00% |           0      0.00%    100.00% |           0      0.00%    100.00% |           0      0.00%    100.00% |           0      0.00%    100.00% |           0      0.00%    100.00% |           0      0.00%    100.00% |           0      0.00%    100.00% |           0      0.00%    100.00% |           0      0.00%    100.00% |           0      0.00%    100.00% |           0      0.00%    100.00% |           0      0.00%    100.00%
system.ruby.SimicsNetworkPortInterface_Controller.MessageRecv::total      2859028                      
system.ruby.SimicsNetworkPortInterface_Controller.A.MessageSend |      547010     19.13%     19.13% |     1429514     50.00%     69.13% |      104814      3.67%     72.80% |      110374      3.86%     76.66% |      111431      3.90%     80.56% |      117516      4.11%     84.67% |      111192      3.89%     88.56% |      121354      4.24%     92.80% |      105384      3.69%     96.49% |      100439      3.51%    100.00% |           0      0.00%    100.00% |           0      0.00%    100.00% |           0      0.00%    100.00% |           0      0.00%    100.00% |           0      0.00%    100.00% |           0      0.00%    100.00% |           0      0.00%    100.00% |           0      0.00%    100.00% |           0      0.00%    100.00% |           0      0.00%    100.00% |           0      0.00%    100.00% |           0      0.00%    100.00% |           0      0.00%    100.00% |           0      0.00%    100.00% |           0      0.00%    100.00% |           0      0.00%    100.00% |           0      0.00%    100.00% |           0      0.00%    100.00% |           0      0.00%    100.00% |           0      0.00%    100.00% |           0      0.00%    100.00% |           0      0.00%    100.00%
system.ruby.SimicsNetworkPortInterface_Controller.A.MessageSend::total      2859028                      
system.ruby.SimicsNetworkPortInterface_Controller.A.MessageRecv |      547010     19.13%     19.13% |     1429514     50.00%     69.13% |      104814      3.67%     72.80% |      110374      3.86%     76.66% |      111431      3.90%     80.56% |      117516      4.11%     84.67% |      111192      3.89%     88.56% |      121354      4.24%     92.80% |      105384      3.69%     96.49% |      100439      3.51%    100.00% |           0      0.00%    100.00% |           0      0.00%    100.00% |           0      0.00%    100.00% |           0      0.00%    100.00% |           0      0.00%    100.00% |           0      0.00%    100.00% |           0      0.00%    100.00% |           0      0.00%    100.00% |           0      0.00%    100.00% |           0      0.00%    100.00% |           0      0.00%    100.00% |           0      0.00%    100.00% |           0      0.00%    100.00% |           0      0.00%    100.00% |           0      0.00%    100.00% |           0      0.00%    100.00% |           0      0.00%    100.00% |           0      0.00%    100.00% |           0      0.00%    100.00% |           0      0.00%    100.00% |           0      0.00%    100.00% |           0      0.00%    100.00%
system.ruby.SimicsNetworkPortInterface_Controller.A.MessageRecv::total      2859028                      
system.switch_cpus.kern.inst.arm                    0                       # number of arm instructions executed
system.switch_cpus.kern.inst.quiesce                0                       # number of quiesce instructions executed

---------- End Simulation Statistics   ----------
