
---------- Begin Simulation Statistics ----------
sim_seconds                                  0.059710                       # Number of seconds simulated
sim_ticks                                 59709977000                       # Number of ticks simulated
final_tick                               5235878055500                       # Number of ticks from beginning of simulation (restored from checkpoints and never reset)
sim_freq                                 1000000000000                       # Frequency of simulated ticks
host_inst_rate                                  95190                       # Simulator instruction rate (inst/s)
host_op_rate                                   169380                       # Simulator op (including micro ops) rate (op/s)
host_tick_rate                              143221194                       # Simulator tick rate (ticks/s)
host_mem_usage                                4842204                       # Number of bytes of host memory used
host_seconds                                   416.91                       # Real time elapsed on the host
sim_insts                                    39685415                       # Number of instructions simulated
sim_ops                                      70615897                       # Number of ops (including micro ops) simulated
system.voltage_domain.voltage                       1                       # Voltage in Volts
system.clk_domain.clock                           500                       # Clock period in ticks
system.mem_ctrls0.bytes_read::ruby.dir_cntrl0     14033856                       # Number of bytes read from this memory
system.mem_ctrls0.bytes_read::total          14033856                       # Number of bytes read from this memory
system.mem_ctrls0.bytes_written::ruby.dir_cntrl0      4007680                       # Number of bytes written to this memory
system.mem_ctrls0.bytes_written::total        4007680                       # Number of bytes written to this memory
system.mem_ctrls0.num_reads::ruby.dir_cntrl0       219279                       # Number of read requests responded to by this memory
system.mem_ctrls0.num_reads::total             219279                       # Number of read requests responded to by this memory
system.mem_ctrls0.num_writes::ruby.dir_cntrl0        62620                       # Number of write requests responded to by this memory
system.mem_ctrls0.num_writes::total             62620                       # Number of write requests responded to by this memory
system.mem_ctrls0.bw_read::ruby.dir_cntrl0    235033686                       # Total read bandwidth from this memory (bytes/s)
system.mem_ctrls0.bw_read::total            235033686                       # Total read bandwidth from this memory (bytes/s)
system.mem_ctrls0.bw_write::ruby.dir_cntrl0     67119101                       # Write bandwidth from this memory (bytes/s)
system.mem_ctrls0.bw_write::total            67119101                       # Write bandwidth from this memory (bytes/s)
system.mem_ctrls0.bw_total::ruby.dir_cntrl0    302152788                       # Total bandwidth to/from this memory (bytes/s)
system.mem_ctrls0.bw_total::total           302152788                       # Total bandwidth to/from this memory (bytes/s)
system.mem_ctrls0.readReqs                     219279                       # Number of read requests accepted
system.mem_ctrls0.writeReqs                     62620                       # Number of write requests accepted
system.mem_ctrls0.readBursts                   219279                       # Number of DRAM read bursts, including those serviced by the write queue
system.mem_ctrls0.writeBursts                   62620                       # Number of DRAM write bursts, including those merged in the write queue
system.mem_ctrls0.bytesReadDRAM              14032192                       # Total number of bytes read from DRAM
system.mem_ctrls0.bytesReadWrQ                   1664                       # Total number of bytes read from write queue
system.mem_ctrls0.bytesWritten                4007424                       # Total number of bytes written to DRAM
system.mem_ctrls0.bytesReadSys               14033856                       # Total read bytes from the system interface side
system.mem_ctrls0.bytesWrittenSys             4007680                       # Total written bytes from the system interface side
system.mem_ctrls0.servicedByWrQ                    26                       # Number of DRAM read bursts serviced by the write queue
system.mem_ctrls0.mergedWrBursts                    0                       # Number of DRAM write bursts merged with an existing one
system.mem_ctrls0.neitherReadNorWriteReqs            0                       # Number of requests that are neither read nor write
system.mem_ctrls0.perBankRdBursts::0            13462                       # Per bank write bursts
system.mem_ctrls0.perBankRdBursts::1            13998                       # Per bank write bursts
system.mem_ctrls0.perBankRdBursts::2            13665                       # Per bank write bursts
system.mem_ctrls0.perBankRdBursts::3            14063                       # Per bank write bursts
system.mem_ctrls0.perBankRdBursts::4            13701                       # Per bank write bursts
system.mem_ctrls0.perBankRdBursts::5            14278                       # Per bank write bursts
system.mem_ctrls0.perBankRdBursts::6            13739                       # Per bank write bursts
system.mem_ctrls0.perBankRdBursts::7            13672                       # Per bank write bursts
system.mem_ctrls0.perBankRdBursts::8            13562                       # Per bank write bursts
system.mem_ctrls0.perBankRdBursts::9            13898                       # Per bank write bursts
system.mem_ctrls0.perBankRdBursts::10           13605                       # Per bank write bursts
system.mem_ctrls0.perBankRdBursts::11           13834                       # Per bank write bursts
system.mem_ctrls0.perBankRdBursts::12           13385                       # Per bank write bursts
system.mem_ctrls0.perBankRdBursts::13           13262                       # Per bank write bursts
system.mem_ctrls0.perBankRdBursts::14           13559                       # Per bank write bursts
system.mem_ctrls0.perBankRdBursts::15           13570                       # Per bank write bursts
system.mem_ctrls0.perBankWrBursts::0             3845                       # Per bank write bursts
system.mem_ctrls0.perBankWrBursts::1             3927                       # Per bank write bursts
system.mem_ctrls0.perBankWrBursts::2             3907                       # Per bank write bursts
system.mem_ctrls0.perBankWrBursts::3             4132                       # Per bank write bursts
system.mem_ctrls0.perBankWrBursts::4             3927                       # Per bank write bursts
system.mem_ctrls0.perBankWrBursts::5             4075                       # Per bank write bursts
system.mem_ctrls0.perBankWrBursts::6             3983                       # Per bank write bursts
system.mem_ctrls0.perBankWrBursts::7             3947                       # Per bank write bursts
system.mem_ctrls0.perBankWrBursts::8             3818                       # Per bank write bursts
system.mem_ctrls0.perBankWrBursts::9             4072                       # Per bank write bursts
system.mem_ctrls0.perBankWrBursts::10            3841                       # Per bank write bursts
system.mem_ctrls0.perBankWrBursts::11            3777                       # Per bank write bursts
system.mem_ctrls0.perBankWrBursts::12            3724                       # Per bank write bursts
system.mem_ctrls0.perBankWrBursts::13            3759                       # Per bank write bursts
system.mem_ctrls0.perBankWrBursts::14            4009                       # Per bank write bursts
system.mem_ctrls0.perBankWrBursts::15            3873                       # Per bank write bursts
system.mem_ctrls0.numRdRetry                      658                       # Number of times read queue was full causing retry
system.mem_ctrls0.numWrRetry                      397                       # Number of times write queue was full causing retry
system.mem_ctrls0.totGap                  59709485500                       # Total gap between requests
system.mem_ctrls0.readPktSize::0                    0                       # Read request sizes (log2)
system.mem_ctrls0.readPktSize::1                    0                       # Read request sizes (log2)
system.mem_ctrls0.readPktSize::2                    0                       # Read request sizes (log2)
system.mem_ctrls0.readPktSize::3                    0                       # Read request sizes (log2)
system.mem_ctrls0.readPktSize::4                    0                       # Read request sizes (log2)
system.mem_ctrls0.readPktSize::5                    0                       # Read request sizes (log2)
system.mem_ctrls0.readPktSize::6               219279                       # Read request sizes (log2)
system.mem_ctrls0.writePktSize::0                   0                       # Write request sizes (log2)
system.mem_ctrls0.writePktSize::1                   0                       # Write request sizes (log2)
system.mem_ctrls0.writePktSize::2                   0                       # Write request sizes (log2)
system.mem_ctrls0.writePktSize::3                   0                       # Write request sizes (log2)
system.mem_ctrls0.writePktSize::4                   0                       # Write request sizes (log2)
system.mem_ctrls0.writePktSize::5                   0                       # Write request sizes (log2)
system.mem_ctrls0.writePktSize::6               62620                       # Write request sizes (log2)
system.mem_ctrls0.rdQLenPdf::0                 160616                       # What read queue length does an incoming req see
system.mem_ctrls0.rdQLenPdf::1                  42276                       # What read queue length does an incoming req see
system.mem_ctrls0.rdQLenPdf::2                  11306                       # What read queue length does an incoming req see
system.mem_ctrls0.rdQLenPdf::3                   2691                       # What read queue length does an incoming req see
system.mem_ctrls0.rdQLenPdf::4                    647                       # What read queue length does an incoming req see
system.mem_ctrls0.rdQLenPdf::5                    192                       # What read queue length does an incoming req see
system.mem_ctrls0.rdQLenPdf::6                    104                       # What read queue length does an incoming req see
system.mem_ctrls0.rdQLenPdf::7                     82                       # What read queue length does an incoming req see
system.mem_ctrls0.rdQLenPdf::8                     54                       # What read queue length does an incoming req see
system.mem_ctrls0.rdQLenPdf::9                     36                       # What read queue length does an incoming req see
system.mem_ctrls0.rdQLenPdf::10                    31                       # What read queue length does an incoming req see
system.mem_ctrls0.rdQLenPdf::11                    29                       # What read queue length does an incoming req see
system.mem_ctrls0.rdQLenPdf::12                    27                       # What read queue length does an incoming req see
system.mem_ctrls0.rdQLenPdf::13                    19                       # What read queue length does an incoming req see
system.mem_ctrls0.rdQLenPdf::14                    22                       # What read queue length does an incoming req see
system.mem_ctrls0.rdQLenPdf::15                    26                       # What read queue length does an incoming req see
system.mem_ctrls0.rdQLenPdf::16                    33                       # What read queue length does an incoming req see
system.mem_ctrls0.rdQLenPdf::17                    39                       # What read queue length does an incoming req see
system.mem_ctrls0.rdQLenPdf::18                    31                       # What read queue length does an incoming req see
system.mem_ctrls0.rdQLenPdf::19                    20                       # What read queue length does an incoming req see
system.mem_ctrls0.rdQLenPdf::20                    14                       # What read queue length does an incoming req see
system.mem_ctrls0.rdQLenPdf::21                    17                       # What read queue length does an incoming req see
system.mem_ctrls0.rdQLenPdf::22                    18                       # What read queue length does an incoming req see
system.mem_ctrls0.rdQLenPdf::23                    14                       # What read queue length does an incoming req see
system.mem_ctrls0.rdQLenPdf::24                    18                       # What read queue length does an incoming req see
system.mem_ctrls0.rdQLenPdf::25                    21                       # What read queue length does an incoming req see
system.mem_ctrls0.rdQLenPdf::26                    13                       # What read queue length does an incoming req see
system.mem_ctrls0.rdQLenPdf::27                    15                       # What read queue length does an incoming req see
system.mem_ctrls0.rdQLenPdf::28                    26                       # What read queue length does an incoming req see
system.mem_ctrls0.rdQLenPdf::29                    36                       # What read queue length does an incoming req see
system.mem_ctrls0.rdQLenPdf::30                    39                       # What read queue length does an incoming req see
system.mem_ctrls0.rdQLenPdf::31                   741                       # What read queue length does an incoming req see
system.mem_ctrls0.wrQLenPdf::0                  12195                       # What write queue length does an incoming req see
system.mem_ctrls0.wrQLenPdf::1                  12373                       # What write queue length does an incoming req see
system.mem_ctrls0.wrQLenPdf::2                  12365                       # What write queue length does an incoming req see
system.mem_ctrls0.wrQLenPdf::3                  12338                       # What write queue length does an incoming req see
system.mem_ctrls0.wrQLenPdf::4                  12332                       # What write queue length does an incoming req see
system.mem_ctrls0.wrQLenPdf::5                    238                       # What write queue length does an incoming req see
system.mem_ctrls0.wrQLenPdf::6                    191                       # What write queue length does an incoming req see
system.mem_ctrls0.wrQLenPdf::7                    588                       # What write queue length does an incoming req see
system.mem_ctrls0.bytesPerActivate::samples        85403                       # Bytes accessed per row activation
system.mem_ctrls0.bytesPerActivate::mean   211.221807                       # Bytes accessed per row activation
system.mem_ctrls0.bytesPerActivate::gmean   136.144322                       # Bytes accessed per row activation
system.mem_ctrls0.bytesPerActivate::stdev   239.291186                       # Bytes accessed per row activation
system.mem_ctrls0.bytesPerActivate::0-127        41329     48.39%     48.39% # Bytes accessed per row activation
system.mem_ctrls0.bytesPerActivate::128-255        17809     20.85%     69.25% # Bytes accessed per row activation
system.mem_ctrls0.bytesPerActivate::256-383        14851     17.39%     86.64% # Bytes accessed per row activation
system.mem_ctrls0.bytesPerActivate::384-511         2741      3.21%     89.84% # Bytes accessed per row activation
system.mem_ctrls0.bytesPerActivate::512-639         1787      2.09%     91.94% # Bytes accessed per row activation
system.mem_ctrls0.bytesPerActivate::640-767         1321      1.55%     93.48% # Bytes accessed per row activation
system.mem_ctrls0.bytesPerActivate::768-895         1076      1.26%     94.74% # Bytes accessed per row activation
system.mem_ctrls0.bytesPerActivate::896-1023          906      1.06%     95.80% # Bytes accessed per row activation
system.mem_ctrls0.bytesPerActivate::1024-1151         3583      4.20%    100.00% # Bytes accessed per row activation
system.mem_ctrls0.bytesPerActivate::total        85403                       # Bytes accessed per row activation
system.mem_ctrls0.rdPerTurnAround::samples        12238                       # Reads before turning the bus around for writes
system.mem_ctrls0.rdPerTurnAround::mean     17.756414                       # Reads before turning the bus around for writes
system.mem_ctrls0.rdPerTurnAround::stdev    75.878512                       # Reads before turning the bus around for writes
system.mem_ctrls0.rdPerTurnAround::0-127        11876     97.04%     97.04% # Reads before turning the bus around for writes
system.mem_ctrls0.rdPerTurnAround::128-255          196      1.60%     98.64% # Reads before turning the bus around for writes
system.mem_ctrls0.rdPerTurnAround::256-383           69      0.56%     99.21% # Reads before turning the bus around for writes
system.mem_ctrls0.rdPerTurnAround::384-511           48      0.39%     99.60% # Reads before turning the bus around for writes
system.mem_ctrls0.rdPerTurnAround::512-639           24      0.20%     99.80% # Reads before turning the bus around for writes
system.mem_ctrls0.rdPerTurnAround::640-767           10      0.08%     99.88% # Reads before turning the bus around for writes
system.mem_ctrls0.rdPerTurnAround::768-895            4      0.03%     99.91% # Reads before turning the bus around for writes
system.mem_ctrls0.rdPerTurnAround::896-1023            4      0.03%     99.94% # Reads before turning the bus around for writes
system.mem_ctrls0.rdPerTurnAround::1024-1151            1      0.01%     99.95% # Reads before turning the bus around for writes
system.mem_ctrls0.rdPerTurnAround::1280-1407            1      0.01%     99.96% # Reads before turning the bus around for writes
system.mem_ctrls0.rdPerTurnAround::1408-1535            2      0.02%     99.98% # Reads before turning the bus around for writes
system.mem_ctrls0.rdPerTurnAround::1536-1663            1      0.01%     99.98% # Reads before turning the bus around for writes
system.mem_ctrls0.rdPerTurnAround::1792-1919            1      0.01%     99.99% # Reads before turning the bus around for writes
system.mem_ctrls0.rdPerTurnAround::3968-4095            1      0.01%    100.00% # Reads before turning the bus around for writes
system.mem_ctrls0.rdPerTurnAround::total        12238                       # Reads before turning the bus around for writes
system.mem_ctrls0.wrPerTurnAround::samples        12238                       # Writes before turning the bus around for reads
system.mem_ctrls0.wrPerTurnAround::mean      5.116522                       # Writes before turning the bus around for reads
system.mem_ctrls0.wrPerTurnAround::gmean     5.079509                       # Writes before turning the bus around for reads
system.mem_ctrls0.wrPerTurnAround::stdev     0.880256                       # Writes before turning the bus around for reads
system.mem_ctrls0.wrPerTurnAround::4-7          12119     99.03%     99.03% # Writes before turning the bus around for reads
system.mem_ctrls0.wrPerTurnAround::8-11            44      0.36%     99.39% # Writes before turning the bus around for reads
system.mem_ctrls0.wrPerTurnAround::12-15           17      0.14%     99.53% # Writes before turning the bus around for reads
system.mem_ctrls0.wrPerTurnAround::16-19           58      0.47%    100.00% # Writes before turning the bus around for reads
system.mem_ctrls0.wrPerTurnAround::total        12238                       # Writes before turning the bus around for reads
system.mem_ctrls0.totQLat                  3062169268                       # Total ticks spent queuing
system.mem_ctrls0.totMemAccLat             7173163018                       # Total ticks spent from burst creation until serviced by the DRAM
system.mem_ctrls0.totBusLat                1096265000                       # Total ticks spent in databus transfers
system.mem_ctrls0.avgQLat                    13966.37                       # Average queueing delay per DRAM burst
system.mem_ctrls0.avgBusLat                   5000.00                       # Average bus latency per DRAM burst
system.mem_ctrls0.avgMemAccLat               32716.37                       # Average memory access latency per DRAM burst
system.mem_ctrls0.avgRdBW                      235.01                       # Average DRAM read bandwidth in MiByte/s
system.mem_ctrls0.avgWrBW                       67.11                       # Average achieved write bandwidth in MiByte/s
system.mem_ctrls0.avgRdBWSys                   235.03                       # Average system read bandwidth in MiByte/s
system.mem_ctrls0.avgWrBWSys                    67.12                       # Average system write bandwidth in MiByte/s
system.mem_ctrls0.peakBW                     12800.00                       # Theoretical peak bandwidth in MiByte/s
system.mem_ctrls0.busUtil                        2.36                       # Data bus utilization in percentage
system.mem_ctrls0.busUtilRead                    1.84                       # Data bus utilization in percentage for reads
system.mem_ctrls0.busUtilWrite                   0.52                       # Data bus utilization in percentage for writes
system.mem_ctrls0.avgRdQLen                      1.12                       # Average read queue length when enqueuing
system.mem_ctrls0.avgWrQLen                      2.88                       # Average write queue length when enqueuing
system.mem_ctrls0.readRowHits                  157929                       # Number of row buffer hits during reads
system.mem_ctrls0.writeRowHits                  38530                       # Number of row buffer hits during writes
system.mem_ctrls0.readRowHitRate                72.03                       # Row buffer hit rate for reads
system.mem_ctrls0.writeRowHitRate               61.53                       # Row buffer hit rate for writes
system.mem_ctrls0.avgGap                    211811.63                       # Average gap between requests
system.mem_ctrls0.pageHitRate                   69.70                       # Row buffer hit rate, read and write combined
system.mem_ctrls0.memoryStateTime::IDLE   10781695500                       # Time in different power states
system.mem_ctrls0.memoryStateTime::REF     1993680000                       # Time in different power states
system.mem_ctrls0.memoryStateTime::PRE_PDN            0                       # Time in different power states
system.mem_ctrls0.memoryStateTime::ACT    46929863250                       # Time in different power states
system.mem_ctrls0.memoryStateTime::ACT_PDN            0                       # Time in different power states
system.mem_ctrls0.actEnergy::0              326221560                       # Energy for activate commands per rank (pJ)
system.mem_ctrls0.actEnergy::1              319394880                       # Energy for activate commands per rank (pJ)
system.mem_ctrls0.preEnergy::0              177997875                       # Energy for precharge commands per rank (pJ)
system.mem_ctrls0.preEnergy::1              174273000                       # Energy for precharge commands per rank (pJ)
system.mem_ctrls0.readEnergy::0             862438200                       # Energy for read commands per rank (pJ)
system.mem_ctrls0.readEnergy::1             847618200                       # Energy for read commands per rank (pJ)
system.mem_ctrls0.writeEnergy::0            205694640                       # Energy for write commands per rank (pJ)
system.mem_ctrls0.writeEnergy::1            200057040                       # Energy for write commands per rank (pJ)
system.mem_ctrls0.refreshEnergy::0         3899638080                       # Energy for refresh commands per rank (pJ)
system.mem_ctrls0.refreshEnergy::1         3899638080                       # Energy for refresh commands per rank (pJ)
system.mem_ctrls0.actBackEnergy::0        25594172775                       # Energy for active background per rank (pJ)
system.mem_ctrls0.actBackEnergy::1        24938950365                       # Energy for active background per rank (pJ)
system.mem_ctrls0.preBackEnergy::0        13372106250                       # Energy for precharge background per rank (pJ)
system.mem_ctrls0.preBackEnergy::1        13946862750                       # Energy for precharge background per rank (pJ)
system.mem_ctrls0.totalEnergy::0          44438269380                       # Total energy per rank (pJ)
system.mem_ctrls0.totalEnergy::1          44326794315                       # Total energy per rank (pJ)
system.mem_ctrls0.averagePower::0          744.294480                       # Core power per rank (mW)
system.mem_ctrls0.averagePower::1          742.427389                       # Core power per rank (mW)
system.mem_ctrls1.bytes_read::ruby.dir_cntrl1     13850944                       # Number of bytes read from this memory
system.mem_ctrls1.bytes_read::total          13850944                       # Number of bytes read from this memory
system.mem_ctrls1.bytes_written::ruby.dir_cntrl1      3840704                       # Number of bytes written to this memory
system.mem_ctrls1.bytes_written::total        3840704                       # Number of bytes written to this memory
system.mem_ctrls1.num_reads::ruby.dir_cntrl1       216421                       # Number of read requests responded to by this memory
system.mem_ctrls1.num_reads::total             216421                       # Number of read requests responded to by this memory
system.mem_ctrls1.num_writes::ruby.dir_cntrl1        60011                       # Number of write requests responded to by this memory
system.mem_ctrls1.num_writes::total             60011                       # Number of write requests responded to by this memory
system.mem_ctrls1.bw_read::ruby.dir_cntrl1    231970346                       # Total read bandwidth from this memory (bytes/s)
system.mem_ctrls1.bw_read::total            231970346                       # Total read bandwidth from this memory (bytes/s)
system.mem_ctrls1.bw_write::ruby.dir_cntrl1     64322651                       # Write bandwidth from this memory (bytes/s)
system.mem_ctrls1.bw_write::total            64322651                       # Write bandwidth from this memory (bytes/s)
system.mem_ctrls1.bw_total::ruby.dir_cntrl1    296292996                       # Total bandwidth to/from this memory (bytes/s)
system.mem_ctrls1.bw_total::total           296292996                       # Total bandwidth to/from this memory (bytes/s)
system.mem_ctrls1.readReqs                     216421                       # Number of read requests accepted
system.mem_ctrls1.writeReqs                     60011                       # Number of write requests accepted
system.mem_ctrls1.readBursts                   216421                       # Number of DRAM read bursts, including those serviced by the write queue
system.mem_ctrls1.writeBursts                   60011                       # Number of DRAM write bursts, including those merged in the write queue
system.mem_ctrls1.bytesReadDRAM              13849344                       # Total number of bytes read from DRAM
system.mem_ctrls1.bytesReadWrQ                   1600                       # Total number of bytes read from write queue
system.mem_ctrls1.bytesWritten                3840512                       # Total number of bytes written to DRAM
system.mem_ctrls1.bytesReadSys               13850944                       # Total read bytes from the system interface side
system.mem_ctrls1.bytesWrittenSys             3840704                       # Total written bytes from the system interface side
system.mem_ctrls1.servicedByWrQ                    25                       # Number of DRAM read bursts serviced by the write queue
system.mem_ctrls1.mergedWrBursts                    0                       # Number of DRAM write bursts merged with an existing one
system.mem_ctrls1.neitherReadNorWriteReqs            0                       # Number of requests that are neither read nor write
system.mem_ctrls1.perBankRdBursts::0            13290                       # Per bank write bursts
system.mem_ctrls1.perBankRdBursts::1            13819                       # Per bank write bursts
system.mem_ctrls1.perBankRdBursts::2            13485                       # Per bank write bursts
system.mem_ctrls1.perBankRdBursts::3            13893                       # Per bank write bursts
system.mem_ctrls1.perBankRdBursts::4            13534                       # Per bank write bursts
system.mem_ctrls1.perBankRdBursts::5            14114                       # Per bank write bursts
system.mem_ctrls1.perBankRdBursts::6            13535                       # Per bank write bursts
system.mem_ctrls1.perBankRdBursts::7            13509                       # Per bank write bursts
system.mem_ctrls1.perBankRdBursts::8            13402                       # Per bank write bursts
system.mem_ctrls1.perBankRdBursts::9            13712                       # Per bank write bursts
system.mem_ctrls1.perBankRdBursts::10           13419                       # Per bank write bursts
system.mem_ctrls1.perBankRdBursts::11           13654                       # Per bank write bursts
system.mem_ctrls1.perBankRdBursts::12           13210                       # Per bank write bursts
system.mem_ctrls1.perBankRdBursts::13           13105                       # Per bank write bursts
system.mem_ctrls1.perBankRdBursts::14           13294                       # Per bank write bursts
system.mem_ctrls1.perBankRdBursts::15           13421                       # Per bank write bursts
system.mem_ctrls1.perBankWrBursts::0             3686                       # Per bank write bursts
system.mem_ctrls1.perBankWrBursts::1             3780                       # Per bank write bursts
system.mem_ctrls1.perBankWrBursts::2             3765                       # Per bank write bursts
system.mem_ctrls1.perBankWrBursts::3             3979                       # Per bank write bursts
system.mem_ctrls1.perBankWrBursts::4             3771                       # Per bank write bursts
system.mem_ctrls1.perBankWrBursts::5             3924                       # Per bank write bursts
system.mem_ctrls1.perBankWrBursts::6             3803                       # Per bank write bursts
system.mem_ctrls1.perBankWrBursts::7             3779                       # Per bank write bursts
system.mem_ctrls1.perBankWrBursts::8             3663                       # Per bank write bursts
system.mem_ctrls1.perBankWrBursts::9             3898                       # Per bank write bursts
system.mem_ctrls1.perBankWrBursts::10            3678                       # Per bank write bursts
system.mem_ctrls1.perBankWrBursts::11            3611                       # Per bank write bursts
system.mem_ctrls1.perBankWrBursts::12            3566                       # Per bank write bursts
system.mem_ctrls1.perBankWrBursts::13            3595                       # Per bank write bursts
system.mem_ctrls1.perBankWrBursts::14            3794                       # Per bank write bursts
system.mem_ctrls1.perBankWrBursts::15            3716                       # Per bank write bursts
system.mem_ctrls1.numRdRetry                      154                       # Number of times read queue was full causing retry
system.mem_ctrls1.numWrRetry                      290                       # Number of times write queue was full causing retry
system.mem_ctrls1.totGap                  59709226500                       # Total gap between requests
system.mem_ctrls1.readPktSize::0                    0                       # Read request sizes (log2)
system.mem_ctrls1.readPktSize::1                    0                       # Read request sizes (log2)
system.mem_ctrls1.readPktSize::2                    0                       # Read request sizes (log2)
system.mem_ctrls1.readPktSize::3                    0                       # Read request sizes (log2)
system.mem_ctrls1.readPktSize::4                    0                       # Read request sizes (log2)
system.mem_ctrls1.readPktSize::5                    0                       # Read request sizes (log2)
system.mem_ctrls1.readPktSize::6               216421                       # Read request sizes (log2)
system.mem_ctrls1.writePktSize::0                   0                       # Write request sizes (log2)
system.mem_ctrls1.writePktSize::1                   0                       # Write request sizes (log2)
system.mem_ctrls1.writePktSize::2                   0                       # Write request sizes (log2)
system.mem_ctrls1.writePktSize::3                   0                       # Write request sizes (log2)
system.mem_ctrls1.writePktSize::4                   0                       # Write request sizes (log2)
system.mem_ctrls1.writePktSize::5                   0                       # Write request sizes (log2)
system.mem_ctrls1.writePktSize::6               60011                       # Write request sizes (log2)
system.mem_ctrls1.rdQLenPdf::0                 158187                       # What read queue length does an incoming req see
system.mem_ctrls1.rdQLenPdf::1                  43041                       # What read queue length does an incoming req see
system.mem_ctrls1.rdQLenPdf::2                  10793                       # What read queue length does an incoming req see
system.mem_ctrls1.rdQLenPdf::3                   2373                       # What read queue length does an incoming req see
system.mem_ctrls1.rdQLenPdf::4                    531                       # What read queue length does an incoming req see
system.mem_ctrls1.rdQLenPdf::5                    184                       # What read queue length does an incoming req see
system.mem_ctrls1.rdQLenPdf::6                     90                       # What read queue length does an incoming req see
system.mem_ctrls1.rdQLenPdf::7                     76                       # What read queue length does an incoming req see
system.mem_ctrls1.rdQLenPdf::8                     68                       # What read queue length does an incoming req see
system.mem_ctrls1.rdQLenPdf::9                     65                       # What read queue length does an incoming req see
system.mem_ctrls1.rdQLenPdf::10                    64                       # What read queue length does an incoming req see
system.mem_ctrls1.rdQLenPdf::11                    66                       # What read queue length does an incoming req see
system.mem_ctrls1.rdQLenPdf::12                    58                       # What read queue length does an incoming req see
system.mem_ctrls1.rdQLenPdf::13                    57                       # What read queue length does an incoming req see
system.mem_ctrls1.rdQLenPdf::14                    47                       # What read queue length does an incoming req see
system.mem_ctrls1.rdQLenPdf::15                    42                       # What read queue length does an incoming req see
system.mem_ctrls1.rdQLenPdf::16                    38                       # What read queue length does an incoming req see
system.mem_ctrls1.rdQLenPdf::17                    43                       # What read queue length does an incoming req see
system.mem_ctrls1.rdQLenPdf::18                    34                       # What read queue length does an incoming req see
system.mem_ctrls1.rdQLenPdf::19                    32                       # What read queue length does an incoming req see
system.mem_ctrls1.rdQLenPdf::20                    31                       # What read queue length does an incoming req see
system.mem_ctrls1.rdQLenPdf::21                    27                       # What read queue length does an incoming req see
system.mem_ctrls1.rdQLenPdf::22                    32                       # What read queue length does an incoming req see
system.mem_ctrls1.rdQLenPdf::23                    32                       # What read queue length does an incoming req see
system.mem_ctrls1.rdQLenPdf::24                    30                       # What read queue length does an incoming req see
system.mem_ctrls1.rdQLenPdf::25                    28                       # What read queue length does an incoming req see
system.mem_ctrls1.rdQLenPdf::26                    32                       # What read queue length does an incoming req see
system.mem_ctrls1.rdQLenPdf::27                    29                       # What read queue length does an incoming req see
system.mem_ctrls1.rdQLenPdf::28                    25                       # What read queue length does an incoming req see
system.mem_ctrls1.rdQLenPdf::29                    25                       # What read queue length does an incoming req see
system.mem_ctrls1.rdQLenPdf::30                    34                       # What read queue length does an incoming req see
system.mem_ctrls1.rdQLenPdf::31                   182                       # What read queue length does an incoming req see
system.mem_ctrls1.wrQLenPdf::0                  11702                       # What write queue length does an incoming req see
system.mem_ctrls1.wrQLenPdf::1                  11891                       # What write queue length does an incoming req see
system.mem_ctrls1.wrQLenPdf::2                  11886                       # What write queue length does an incoming req see
system.mem_ctrls1.wrQLenPdf::3                  11876                       # What write queue length does an incoming req see
system.mem_ctrls1.wrQLenPdf::4                  11853                       # What write queue length does an incoming req see
system.mem_ctrls1.wrQLenPdf::5                    249                       # What write queue length does an incoming req see
system.mem_ctrls1.wrQLenPdf::6                    146                       # What write queue length does an incoming req see
system.mem_ctrls1.wrQLenPdf::7                    408                       # What write queue length does an incoming req see
system.mem_ctrls1.bytesPerActivate::samples        80892                       # Bytes accessed per row activation
system.mem_ctrls1.bytesPerActivate::mean   218.672996                       # Bytes accessed per row activation
system.mem_ctrls1.bytesPerActivate::gmean   140.164567                       # Bytes accessed per row activation
system.mem_ctrls1.bytesPerActivate::stdev   245.607098                       # Bytes accessed per row activation
system.mem_ctrls1.bytesPerActivate::0-127        37868     46.81%     46.81% # Bytes accessed per row activation
system.mem_ctrls1.bytesPerActivate::128-255        17091     21.13%     67.94% # Bytes accessed per row activation
system.mem_ctrls1.bytesPerActivate::256-383        14480     17.90%     85.84% # Bytes accessed per row activation
system.mem_ctrls1.bytesPerActivate::384-511         2612      3.23%     89.07% # Bytes accessed per row activation
system.mem_ctrls1.bytesPerActivate::512-639         1832      2.26%     91.34% # Bytes accessed per row activation
system.mem_ctrls1.bytesPerActivate::640-767         1338      1.65%     92.99% # Bytes accessed per row activation
system.mem_ctrls1.bytesPerActivate::768-895         1082      1.34%     94.33% # Bytes accessed per row activation
system.mem_ctrls1.bytesPerActivate::896-1023          938      1.16%     95.49% # Bytes accessed per row activation
system.mem_ctrls1.bytesPerActivate::1024-1151         3651      4.51%    100.00% # Bytes accessed per row activation
system.mem_ctrls1.bytesPerActivate::total        80892                       # Bytes accessed per row activation
system.mem_ctrls1.rdPerTurnAround::samples        11734                       # Reads before turning the bus around for writes
system.mem_ctrls1.rdPerTurnAround::mean     18.277910                       # Reads before turning the bus around for writes
system.mem_ctrls1.rdPerTurnAround::stdev    76.759577                       # Reads before turning the bus around for writes
system.mem_ctrls1.rdPerTurnAround::0-127        11380     96.98%     96.98% # Reads before turning the bus around for writes
system.mem_ctrls1.rdPerTurnAround::128-255          172      1.47%     98.45% # Reads before turning the bus around for writes
system.mem_ctrls1.rdPerTurnAround::256-383           78      0.66%     99.11% # Reads before turning the bus around for writes
system.mem_ctrls1.rdPerTurnAround::384-511           52      0.44%     99.56% # Reads before turning the bus around for writes
system.mem_ctrls1.rdPerTurnAround::512-639           26      0.22%     99.78% # Reads before turning the bus around for writes
system.mem_ctrls1.rdPerTurnAround::640-767           10      0.09%     99.86% # Reads before turning the bus around for writes
system.mem_ctrls1.rdPerTurnAround::768-895            3      0.03%     99.89% # Reads before turning the bus around for writes
system.mem_ctrls1.rdPerTurnAround::896-1023            3      0.03%     99.91% # Reads before turning the bus around for writes
system.mem_ctrls1.rdPerTurnAround::1024-1151            2      0.02%     99.93% # Reads before turning the bus around for writes
system.mem_ctrls1.rdPerTurnAround::1152-1279            2      0.02%     99.95% # Reads before turning the bus around for writes
system.mem_ctrls1.rdPerTurnAround::1408-1535            1      0.01%     99.96% # Reads before turning the bus around for writes
system.mem_ctrls1.rdPerTurnAround::1664-1791            2      0.02%     99.97% # Reads before turning the bus around for writes
system.mem_ctrls1.rdPerTurnAround::1792-1919            1      0.01%     99.98% # Reads before turning the bus around for writes
system.mem_ctrls1.rdPerTurnAround::2048-2175            1      0.01%     99.99% # Reads before turning the bus around for writes
system.mem_ctrls1.rdPerTurnAround::2816-2943            1      0.01%    100.00% # Reads before turning the bus around for writes
system.mem_ctrls1.rdPerTurnAround::total        11734                       # Reads before turning the bus around for writes
system.mem_ctrls1.wrPerTurnAround::samples        11734                       # Writes before turning the bus around for reads
system.mem_ctrls1.wrPerTurnAround::mean      5.114028                       # Writes before turning the bus around for reads
system.mem_ctrls1.wrPerTurnAround::gmean     5.081307                       # Writes before turning the bus around for reads
system.mem_ctrls1.wrPerTurnAround::stdev     0.805432                       # Writes before turning the bus around for reads
system.mem_ctrls1.wrPerTurnAround::4-7          11612     98.96%     98.96% # Writes before turning the bus around for reads
system.mem_ctrls1.wrPerTurnAround::8-11            62      0.53%     99.49% # Writes before turning the bus around for reads
system.mem_ctrls1.wrPerTurnAround::12-15           24      0.20%     99.69% # Writes before turning the bus around for reads
system.mem_ctrls1.wrPerTurnAround::16-19           36      0.31%    100.00% # Writes before turning the bus around for reads
system.mem_ctrls1.wrPerTurnAround::total        11734                       # Writes before turning the bus around for reads
system.mem_ctrls1.totQLat                  2787643421                       # Total ticks spent queuing
system.mem_ctrls1.totMemAccLat             6845068421                       # Total ticks spent from burst creation until serviced by the DRAM
system.mem_ctrls1.totBusLat                1081980000                       # Total ticks spent in databus transfers
system.mem_ctrls1.avgQLat                    12882.14                       # Average queueing delay per DRAM burst
system.mem_ctrls1.avgBusLat                   5000.00                       # Average bus latency per DRAM burst
system.mem_ctrls1.avgMemAccLat               31632.14                       # Average memory access latency per DRAM burst
system.mem_ctrls1.avgRdBW                      231.94                       # Average DRAM read bandwidth in MiByte/s
system.mem_ctrls1.avgWrBW                       64.32                       # Average achieved write bandwidth in MiByte/s
system.mem_ctrls1.avgRdBWSys                   231.97                       # Average system read bandwidth in MiByte/s
system.mem_ctrls1.avgWrBWSys                    64.32                       # Average system write bandwidth in MiByte/s
system.mem_ctrls1.peakBW                     12800.00                       # Theoretical peak bandwidth in MiByte/s
system.mem_ctrls1.busUtil                        2.31                       # Data bus utilization in percentage
system.mem_ctrls1.busUtilRead                    1.81                       # Data bus utilization in percentage for reads
system.mem_ctrls1.busUtilWrite                   0.50                       # Data bus utilization in percentage for writes
system.mem_ctrls1.avgRdQLen                      1.10                       # Average read queue length when enqueuing
system.mem_ctrls1.avgWrQLen                      2.92                       # Average write queue length when enqueuing
system.mem_ctrls1.readRowHits                  156620                       # Number of row buffer hits during reads
system.mem_ctrls1.writeRowHits                  38885                       # Number of row buffer hits during writes
system.mem_ctrls1.readRowHitRate                72.38                       # Row buffer hit rate for reads
system.mem_ctrls1.writeRowHitRate               64.80                       # Row buffer hit rate for writes
system.mem_ctrls1.avgGap                    215999.69                       # Average gap between requests
system.mem_ctrls1.pageHitRate                   70.73                       # Row buffer hit rate, read and write combined
system.mem_ctrls1.memoryStateTime::IDLE   11216750000                       # Time in different power states
system.mem_ctrls1.memoryStateTime::REF     1993680000                       # Time in different power states
system.mem_ctrls1.memoryStateTime::PRE_PDN            0                       # Time in different power states
system.mem_ctrls1.memoryStateTime::ACT    46495302000                       # Time in different power states
system.mem_ctrls1.memoryStateTime::ACT_PDN            0                       # Time in different power states
system.mem_ctrls1.actEnergy::0              310292640                       # Energy for activate commands per rank (pJ)
system.mem_ctrls1.actEnergy::1              301250880                       # Energy for activate commands per rank (pJ)
system.mem_ctrls1.preEnergy::0              169306500                       # Energy for precharge commands per rank (pJ)
system.mem_ctrls1.preEnergy::1              164373000                       # Energy for precharge commands per rank (pJ)
system.mem_ctrls1.readEnergy::0             851518200                       # Energy for read commands per rank (pJ)
system.mem_ctrls1.readEnergy::1             836253600                       # Energy for read commands per rank (pJ)
system.mem_ctrls1.writeEnergy::0            197555760                       # Energy for write commands per rank (pJ)
system.mem_ctrls1.writeEnergy::1            191296080                       # Energy for write commands per rank (pJ)
system.mem_ctrls1.refreshEnergy::0         3899638080                       # Energy for refresh commands per rank (pJ)
system.mem_ctrls1.refreshEnergy::1         3899638080                       # Energy for refresh commands per rank (pJ)
system.mem_ctrls1.actBackEnergy::0        25284705525                       # Energy for active background per rank (pJ)
system.mem_ctrls1.actBackEnergy::1        24371298765                       # Energy for active background per rank (pJ)
system.mem_ctrls1.preBackEnergy::0        13643568750                       # Energy for precharge background per rank (pJ)
system.mem_ctrls1.preBackEnergy::1        14444802750                       # Energy for precharge background per rank (pJ)
system.mem_ctrls1.totalEnergy::0          44356585455                       # Total energy per rank (pJ)
system.mem_ctrls1.totalEnergy::1          44208913155                       # Total energy per rank (pJ)
system.mem_ctrls1.averagePower::0          742.926360                       # Core power per rank (mW)
system.mem_ctrls1.averagePower::1          740.453003                       # Core power per rank (mW)
system.mem_ctrls2.bytes_read::ruby.dir_cntrl2     13851520                       # Number of bytes read from this memory
system.mem_ctrls2.bytes_read::total          13851520                       # Number of bytes read from this memory
system.mem_ctrls2.bytes_written::ruby.dir_cntrl2      3841920                       # Number of bytes written to this memory
system.mem_ctrls2.bytes_written::total        3841920                       # Number of bytes written to this memory
system.mem_ctrls2.num_reads::ruby.dir_cntrl2       216430                       # Number of read requests responded to by this memory
system.mem_ctrls2.num_reads::total             216430                       # Number of read requests responded to by this memory
system.mem_ctrls2.num_writes::ruby.dir_cntrl2        60030                       # Number of write requests responded to by this memory
system.mem_ctrls2.num_writes::total             60030                       # Number of write requests responded to by this memory
system.mem_ctrls2.bw_read::ruby.dir_cntrl2    231979992                       # Total read bandwidth from this memory (bytes/s)
system.mem_ctrls2.bw_read::total            231979992                       # Total read bandwidth from this memory (bytes/s)
system.mem_ctrls2.bw_write::ruby.dir_cntrl2     64343016                       # Write bandwidth from this memory (bytes/s)
system.mem_ctrls2.bw_write::total            64343016                       # Write bandwidth from this memory (bytes/s)
system.mem_ctrls2.bw_total::ruby.dir_cntrl2    296323008                       # Total bandwidth to/from this memory (bytes/s)
system.mem_ctrls2.bw_total::total           296323008                       # Total bandwidth to/from this memory (bytes/s)
system.mem_ctrls2.readReqs                     216430                       # Number of read requests accepted
system.mem_ctrls2.writeReqs                     60030                       # Number of write requests accepted
system.mem_ctrls2.readBursts                   216430                       # Number of DRAM read bursts, including those serviced by the write queue
system.mem_ctrls2.writeBursts                   60030                       # Number of DRAM write bursts, including those merged in the write queue
system.mem_ctrls2.bytesReadDRAM              13850688                       # Total number of bytes read from DRAM
system.mem_ctrls2.bytesReadWrQ                    832                       # Total number of bytes read from write queue
system.mem_ctrls2.bytesWritten                3841664                       # Total number of bytes written to DRAM
system.mem_ctrls2.bytesReadSys               13851520                       # Total read bytes from the system interface side
system.mem_ctrls2.bytesWrittenSys             3841920                       # Total written bytes from the system interface side
system.mem_ctrls2.servicedByWrQ                    13                       # Number of DRAM read bursts serviced by the write queue
system.mem_ctrls2.mergedWrBursts                    0                       # Number of DRAM write bursts merged with an existing one
system.mem_ctrls2.neitherReadNorWriteReqs            0                       # Number of requests that are neither read nor write
system.mem_ctrls2.perBankRdBursts::0            13292                       # Per bank write bursts
system.mem_ctrls2.perBankRdBursts::1            13832                       # Per bank write bursts
system.mem_ctrls2.perBankRdBursts::2            13508                       # Per bank write bursts
system.mem_ctrls2.perBankRdBursts::3            13918                       # Per bank write bursts
system.mem_ctrls2.perBankRdBursts::4            13546                       # Per bank write bursts
system.mem_ctrls2.perBankRdBursts::5            14103                       # Per bank write bursts
system.mem_ctrls2.perBankRdBursts::6            13493                       # Per bank write bursts
system.mem_ctrls2.perBankRdBursts::7            13499                       # Per bank write bursts
system.mem_ctrls2.perBankRdBursts::8            13396                       # Per bank write bursts
system.mem_ctrls2.perBankRdBursts::9            13711                       # Per bank write bursts
system.mem_ctrls2.perBankRdBursts::10           13426                       # Per bank write bursts
system.mem_ctrls2.perBankRdBursts::11           13700                       # Per bank write bursts
system.mem_ctrls2.perBankRdBursts::12           13205                       # Per bank write bursts
system.mem_ctrls2.perBankRdBursts::13           13068                       # Per bank write bursts
system.mem_ctrls2.perBankRdBursts::14           13299                       # Per bank write bursts
system.mem_ctrls2.perBankRdBursts::15           13421                       # Per bank write bursts
system.mem_ctrls2.perBankWrBursts::0             3679                       # Per bank write bursts
system.mem_ctrls2.perBankWrBursts::1             3777                       # Per bank write bursts
system.mem_ctrls2.perBankWrBursts::2             3762                       # Per bank write bursts
system.mem_ctrls2.perBankWrBursts::3             3992                       # Per bank write bursts
system.mem_ctrls2.perBankWrBursts::4             3770                       # Per bank write bursts
system.mem_ctrls2.perBankWrBursts::5             3914                       # Per bank write bursts
system.mem_ctrls2.perBankWrBursts::6             3812                       # Per bank write bursts
system.mem_ctrls2.perBankWrBursts::7             3786                       # Per bank write bursts
system.mem_ctrls2.perBankWrBursts::8             3665                       # Per bank write bursts
system.mem_ctrls2.perBankWrBursts::9             3906                       # Per bank write bursts
system.mem_ctrls2.perBankWrBursts::10            3673                       # Per bank write bursts
system.mem_ctrls2.perBankWrBursts::11            3608                       # Per bank write bursts
system.mem_ctrls2.perBankWrBursts::12            3575                       # Per bank write bursts
system.mem_ctrls2.perBankWrBursts::13            3589                       # Per bank write bursts
system.mem_ctrls2.perBankWrBursts::14            3799                       # Per bank write bursts
system.mem_ctrls2.perBankWrBursts::15            3719                       # Per bank write bursts
system.mem_ctrls2.numRdRetry                      217                       # Number of times read queue was full causing retry
system.mem_ctrls2.numWrRetry                      330                       # Number of times write queue was full causing retry
system.mem_ctrls2.totGap                  59709259500                       # Total gap between requests
system.mem_ctrls2.readPktSize::0                    0                       # Read request sizes (log2)
system.mem_ctrls2.readPktSize::1                    0                       # Read request sizes (log2)
system.mem_ctrls2.readPktSize::2                    0                       # Read request sizes (log2)
system.mem_ctrls2.readPktSize::3                    0                       # Read request sizes (log2)
system.mem_ctrls2.readPktSize::4                    0                       # Read request sizes (log2)
system.mem_ctrls2.readPktSize::5                    0                       # Read request sizes (log2)
system.mem_ctrls2.readPktSize::6               216430                       # Read request sizes (log2)
system.mem_ctrls2.writePktSize::0                   0                       # Write request sizes (log2)
system.mem_ctrls2.writePktSize::1                   0                       # Write request sizes (log2)
system.mem_ctrls2.writePktSize::2                   0                       # Write request sizes (log2)
system.mem_ctrls2.writePktSize::3                   0                       # Write request sizes (log2)
system.mem_ctrls2.writePktSize::4                   0                       # Write request sizes (log2)
system.mem_ctrls2.writePktSize::5                   0                       # Write request sizes (log2)
system.mem_ctrls2.writePktSize::6               60030                       # Write request sizes (log2)
system.mem_ctrls2.rdQLenPdf::0                 158687                       # What read queue length does an incoming req see
system.mem_ctrls2.rdQLenPdf::1                  42395                       # What read queue length does an incoming req see
system.mem_ctrls2.rdQLenPdf::2                  10913                       # What read queue length does an incoming req see
system.mem_ctrls2.rdQLenPdf::3                   2402                       # What read queue length does an incoming req see
system.mem_ctrls2.rdQLenPdf::4                    524                       # What read queue length does an incoming req see
system.mem_ctrls2.rdQLenPdf::5                    161                       # What read queue length does an incoming req see
system.mem_ctrls2.rdQLenPdf::6                    103                       # What read queue length does an incoming req see
system.mem_ctrls2.rdQLenPdf::7                     70                       # What read queue length does an incoming req see
system.mem_ctrls2.rdQLenPdf::8                     75                       # What read queue length does an incoming req see
system.mem_ctrls2.rdQLenPdf::9                     75                       # What read queue length does an incoming req see
system.mem_ctrls2.rdQLenPdf::10                    49                       # What read queue length does an incoming req see
system.mem_ctrls2.rdQLenPdf::11                    37                       # What read queue length does an incoming req see
system.mem_ctrls2.rdQLenPdf::12                    38                       # What read queue length does an incoming req see
system.mem_ctrls2.rdQLenPdf::13                    40                       # What read queue length does an incoming req see
system.mem_ctrls2.rdQLenPdf::14                    47                       # What read queue length does an incoming req see
system.mem_ctrls2.rdQLenPdf::15                    45                       # What read queue length does an incoming req see
system.mem_ctrls2.rdQLenPdf::16                    48                       # What read queue length does an incoming req see
system.mem_ctrls2.rdQLenPdf::17                    38                       # What read queue length does an incoming req see
system.mem_ctrls2.rdQLenPdf::18                    38                       # What read queue length does an incoming req see
system.mem_ctrls2.rdQLenPdf::19                    25                       # What read queue length does an incoming req see
system.mem_ctrls2.rdQLenPdf::20                    29                       # What read queue length does an incoming req see
system.mem_ctrls2.rdQLenPdf::21                    28                       # What read queue length does an incoming req see
system.mem_ctrls2.rdQLenPdf::22                    23                       # What read queue length does an incoming req see
system.mem_ctrls2.rdQLenPdf::23                    26                       # What read queue length does an incoming req see
system.mem_ctrls2.rdQLenPdf::24                    34                       # What read queue length does an incoming req see
system.mem_ctrls2.rdQLenPdf::25                    26                       # What read queue length does an incoming req see
system.mem_ctrls2.rdQLenPdf::26                    34                       # What read queue length does an incoming req see
system.mem_ctrls2.rdQLenPdf::27                    32                       # What read queue length does an incoming req see
system.mem_ctrls2.rdQLenPdf::28                    34                       # What read queue length does an incoming req see
system.mem_ctrls2.rdQLenPdf::29                    33                       # What read queue length does an incoming req see
system.mem_ctrls2.rdQLenPdf::30                    46                       # What read queue length does an incoming req see
system.mem_ctrls2.rdQLenPdf::31                   262                       # What read queue length does an incoming req see
system.mem_ctrls2.wrQLenPdf::0                  11708                       # What write queue length does an incoming req see
system.mem_ctrls2.wrQLenPdf::1                  11878                       # What write queue length does an incoming req see
system.mem_ctrls2.wrQLenPdf::2                  11878                       # What write queue length does an incoming req see
system.mem_ctrls2.wrQLenPdf::3                  11842                       # What write queue length does an incoming req see
system.mem_ctrls2.wrQLenPdf::4                  11832                       # What write queue length does an incoming req see
system.mem_ctrls2.wrQLenPdf::5                    239                       # What write queue length does an incoming req see
system.mem_ctrls2.wrQLenPdf::6                    183                       # What write queue length does an incoming req see
system.mem_ctrls2.wrQLenPdf::7                    470                       # What write queue length does an incoming req see
system.mem_ctrls2.bytesPerActivate::samples        80872                       # Bytes accessed per row activation
system.mem_ctrls2.bytesPerActivate::mean   218.758730                       # Bytes accessed per row activation
system.mem_ctrls2.bytesPerActivate::gmean   140.144560                       # Bytes accessed per row activation
system.mem_ctrls2.bytesPerActivate::stdev   245.346669                       # Bytes accessed per row activation
system.mem_ctrls2.bytesPerActivate::0-127        38046     47.04%     47.04% # Bytes accessed per row activation
system.mem_ctrls2.bytesPerActivate::128-255        16610     20.54%     67.58% # Bytes accessed per row activation
system.mem_ctrls2.bytesPerActivate::256-383        14632     18.09%     85.68% # Bytes accessed per row activation
system.mem_ctrls2.bytesPerActivate::384-511         2738      3.39%     89.06% # Bytes accessed per row activation
system.mem_ctrls2.bytesPerActivate::512-639         1854      2.29%     91.35% # Bytes accessed per row activation
system.mem_ctrls2.bytesPerActivate::640-767         1335      1.65%     93.00% # Bytes accessed per row activation
system.mem_ctrls2.bytesPerActivate::768-895         1111      1.37%     94.38% # Bytes accessed per row activation
system.mem_ctrls2.bytesPerActivate::896-1023          918      1.14%     95.51% # Bytes accessed per row activation
system.mem_ctrls2.bytesPerActivate::1024-1151         3628      4.49%    100.00% # Bytes accessed per row activation
system.mem_ctrls2.bytesPerActivate::total        80872                       # Bytes accessed per row activation
system.mem_ctrls2.rdPerTurnAround::samples        11741                       # Reads before turning the bus around for writes
system.mem_ctrls2.rdPerTurnAround::mean     18.268035                       # Reads before turning the bus around for writes
system.mem_ctrls2.rdPerTurnAround::stdev    77.560934                       # Reads before turning the bus around for writes
system.mem_ctrls2.rdPerTurnAround::0-127        11392     97.03%     97.03% # Reads before turning the bus around for writes
system.mem_ctrls2.rdPerTurnAround::128-255          173      1.47%     98.50% # Reads before turning the bus around for writes
system.mem_ctrls2.rdPerTurnAround::256-383           69      0.59%     99.09% # Reads before turning the bus around for writes
system.mem_ctrls2.rdPerTurnAround::384-511           58      0.49%     99.58% # Reads before turning the bus around for writes
system.mem_ctrls2.rdPerTurnAround::512-639           23      0.20%     99.78% # Reads before turning the bus around for writes
system.mem_ctrls2.rdPerTurnAround::640-767            9      0.08%     99.86% # Reads before turning the bus around for writes
system.mem_ctrls2.rdPerTurnAround::768-895            1      0.01%     99.86% # Reads before turning the bus around for writes
system.mem_ctrls2.rdPerTurnAround::896-1023            7      0.06%     99.92% # Reads before turning the bus around for writes
system.mem_ctrls2.rdPerTurnAround::1024-1151            1      0.01%     99.93% # Reads before turning the bus around for writes
system.mem_ctrls2.rdPerTurnAround::1152-1279            2      0.02%     99.95% # Reads before turning the bus around for writes
system.mem_ctrls2.rdPerTurnAround::1536-1663            2      0.02%     99.97% # Reads before turning the bus around for writes
system.mem_ctrls2.rdPerTurnAround::1664-1791            1      0.01%     99.97% # Reads before turning the bus around for writes
system.mem_ctrls2.rdPerTurnAround::1792-1919            1      0.01%     99.98% # Reads before turning the bus around for writes
system.mem_ctrls2.rdPerTurnAround::2048-2175            1      0.01%     99.99% # Reads before turning the bus around for writes
system.mem_ctrls2.rdPerTurnAround::2816-2943            1      0.01%    100.00% # Reads before turning the bus around for writes
system.mem_ctrls2.rdPerTurnAround::total        11741                       # Reads before turning the bus around for writes
system.mem_ctrls2.wrPerTurnAround::samples        11741                       # Writes before turning the bus around for reads
system.mem_ctrls2.wrPerTurnAround::mean      5.112512                       # Writes before turning the bus around for reads
system.mem_ctrls2.wrPerTurnAround::gmean     5.078150                       # Writes before turning the bus around for reads
system.mem_ctrls2.wrPerTurnAround::stdev     0.838408                       # Writes before turning the bus around for reads
system.mem_ctrls2.wrPerTurnAround::4-7          11623     98.99%     98.99% # Writes before turning the bus around for reads
system.mem_ctrls2.wrPerTurnAround::8-11            55      0.47%     99.46% # Writes before turning the bus around for reads
system.mem_ctrls2.wrPerTurnAround::12-15           19      0.16%     99.63% # Writes before turning the bus around for reads
system.mem_ctrls2.wrPerTurnAround::16-19           44      0.37%    100.00% # Writes before turning the bus around for reads
system.mem_ctrls2.wrPerTurnAround::total        11741                       # Writes before turning the bus around for reads
system.mem_ctrls2.totQLat                  2848688457                       # Total ticks spent queuing
system.mem_ctrls2.totMemAccLat             6906507207                       # Total ticks spent from burst creation until serviced by the DRAM
system.mem_ctrls2.totBusLat                1082085000                       # Total ticks spent in databus transfers
system.mem_ctrls2.avgQLat                    13162.96                       # Average queueing delay per DRAM burst
system.mem_ctrls2.avgBusLat                   5000.00                       # Average bus latency per DRAM burst
system.mem_ctrls2.avgMemAccLat               31912.96                       # Average memory access latency per DRAM burst
system.mem_ctrls2.avgRdBW                      231.97                       # Average DRAM read bandwidth in MiByte/s
system.mem_ctrls2.avgWrBW                       64.34                       # Average achieved write bandwidth in MiByte/s
system.mem_ctrls2.avgRdBWSys                   231.98                       # Average system read bandwidth in MiByte/s
system.mem_ctrls2.avgWrBWSys                    64.34                       # Average system write bandwidth in MiByte/s
system.mem_ctrls2.peakBW                     12800.00                       # Theoretical peak bandwidth in MiByte/s
system.mem_ctrls2.busUtil                        2.31                       # Data bus utilization in percentage
system.mem_ctrls2.busUtilRead                    1.81                       # Data bus utilization in percentage for reads
system.mem_ctrls2.busUtilWrite                   0.50                       # Data bus utilization in percentage for writes
system.mem_ctrls2.avgRdQLen                      1.10                       # Average read queue length when enqueuing
system.mem_ctrls2.avgWrQLen                      2.97                       # Average write queue length when enqueuing
system.mem_ctrls2.readRowHits                  156657                       # Number of row buffer hits during reads
system.mem_ctrls2.writeRowHits                  38906                       # Number of row buffer hits during writes
system.mem_ctrls2.readRowHitRate                72.39                       # Row buffer hit rate for reads
system.mem_ctrls2.writeRowHitRate               64.81                       # Row buffer hit rate for writes
system.mem_ctrls2.avgGap                    215977.93                       # Average gap between requests
system.mem_ctrls2.pageHitRate                   70.74                       # Row buffer hit rate, read and write combined
system.mem_ctrls2.memoryStateTime::IDLE   11118316250                       # Time in different power states
system.mem_ctrls2.memoryStateTime::REF     1993680000                       # Time in different power states
system.mem_ctrls2.memoryStateTime::PRE_PDN            0                       # Time in different power states
system.mem_ctrls2.memoryStateTime::ACT    46593372750                       # Time in different power states
system.mem_ctrls2.memoryStateTime::ACT_PDN            0                       # Time in different power states
system.mem_ctrls2.actEnergy::0              310640400                       # Energy for activate commands per rank (pJ)
system.mem_ctrls2.actEnergy::1              300744360                       # Energy for activate commands per rank (pJ)
system.mem_ctrls2.preEnergy::0              169496250                       # Energy for precharge commands per rank (pJ)
system.mem_ctrls2.preEnergy::1              164096625                       # Energy for precharge commands per rank (pJ)
system.mem_ctrls2.readEnergy::0             851611800                       # Energy for read commands per rank (pJ)
system.mem_ctrls2.readEnergy::1             836323800                       # Energy for read commands per rank (pJ)
system.mem_ctrls2.writeEnergy::0            197588160                       # Energy for write commands per rank (pJ)
system.mem_ctrls2.writeEnergy::1            191380320                       # Energy for write commands per rank (pJ)
system.mem_ctrls2.refreshEnergy::0         3899638080                       # Energy for refresh commands per rank (pJ)
system.mem_ctrls2.refreshEnergy::1         3899638080                       # Energy for refresh commands per rank (pJ)
system.mem_ctrls2.actBackEnergy::0        25264737855                       # Energy for active background per rank (pJ)
system.mem_ctrls2.actBackEnergy::1        24516741960                       # Energy for active background per rank (pJ)
system.mem_ctrls2.preBackEnergy::0        13661084250                       # Energy for precharge background per rank (pJ)
system.mem_ctrls2.preBackEnergy::1        14317221000                       # Energy for precharge background per rank (pJ)
system.mem_ctrls2.totalEnergy::0          44354796795                       # Total energy per rank (pJ)
system.mem_ctrls2.totalEnergy::1          44226146145                       # Total energy per rank (pJ)
system.mem_ctrls2.averagePower::0          742.896401                       # Core power per rank (mW)
system.mem_ctrls2.averagePower::1          740.741638                       # Core power per rank (mW)
system.mem_ctrls3.bytes_read::ruby.dir_cntrl3     13836672                       # Number of bytes read from this memory
system.mem_ctrls3.bytes_read::total          13836672                       # Number of bytes read from this memory
system.mem_ctrls3.bytes_written::ruby.dir_cntrl3      3838464                       # Number of bytes written to this memory
system.mem_ctrls3.bytes_written::total        3838464                       # Number of bytes written to this memory
system.mem_ctrls3.num_reads::ruby.dir_cntrl3       216198                       # Number of read requests responded to by this memory
system.mem_ctrls3.num_reads::total             216198                       # Number of read requests responded to by this memory
system.mem_ctrls3.num_writes::ruby.dir_cntrl3        59976                       # Number of write requests responded to by this memory
system.mem_ctrls3.num_writes::total             59976                       # Number of write requests responded to by this memory
system.mem_ctrls3.bw_read::ruby.dir_cntrl3    231731324                       # Total read bandwidth from this memory (bytes/s)
system.mem_ctrls3.bw_read::total            231731324                       # Total read bandwidth from this memory (bytes/s)
system.mem_ctrls3.bw_write::ruby.dir_cntrl3     64285136                       # Write bandwidth from this memory (bytes/s)
system.mem_ctrls3.bw_write::total            64285136                       # Write bandwidth from this memory (bytes/s)
system.mem_ctrls3.bw_total::ruby.dir_cntrl3    296016460                       # Total bandwidth to/from this memory (bytes/s)
system.mem_ctrls3.bw_total::total           296016460                       # Total bandwidth to/from this memory (bytes/s)
system.mem_ctrls3.readReqs                     216199                       # Number of read requests accepted
system.mem_ctrls3.writeReqs                     59976                       # Number of write requests accepted
system.mem_ctrls3.readBursts                   216199                       # Number of DRAM read bursts, including those serviced by the write queue
system.mem_ctrls3.writeBursts                   59976                       # Number of DRAM write bursts, including those merged in the write queue
system.mem_ctrls3.bytesReadDRAM              13836032                       # Total number of bytes read from DRAM
system.mem_ctrls3.bytesReadWrQ                    704                       # Total number of bytes read from write queue
system.mem_ctrls3.bytesWritten                3838208                       # Total number of bytes written to DRAM
system.mem_ctrls3.bytesReadSys               13836736                       # Total read bytes from the system interface side
system.mem_ctrls3.bytesWrittenSys             3838464                       # Total written bytes from the system interface side
system.mem_ctrls3.servicedByWrQ                    11                       # Number of DRAM read bursts serviced by the write queue
system.mem_ctrls3.mergedWrBursts                    0                       # Number of DRAM write bursts merged with an existing one
system.mem_ctrls3.neitherReadNorWriteReqs            0                       # Number of requests that are neither read nor write
system.mem_ctrls3.perBankRdBursts::0            13270                       # Per bank write bursts
system.mem_ctrls3.perBankRdBursts::1            13822                       # Per bank write bursts
system.mem_ctrls3.perBankRdBursts::2            13450                       # Per bank write bursts
system.mem_ctrls3.perBankRdBursts::3            13898                       # Per bank write bursts
system.mem_ctrls3.perBankRdBursts::4            13490                       # Per bank write bursts
system.mem_ctrls3.perBankRdBursts::5            14082                       # Per bank write bursts
system.mem_ctrls3.perBankRdBursts::6            13511                       # Per bank write bursts
system.mem_ctrls3.perBankRdBursts::7            13492                       # Per bank write bursts
system.mem_ctrls3.perBankRdBursts::8            13398                       # Per bank write bursts
system.mem_ctrls3.perBankRdBursts::9            13703                       # Per bank write bursts
system.mem_ctrls3.perBankRdBursts::10           13440                       # Per bank write bursts
system.mem_ctrls3.perBankRdBursts::11           13658                       # Per bank write bursts
system.mem_ctrls3.perBankRdBursts::12           13200                       # Per bank write bursts
system.mem_ctrls3.perBankRdBursts::13           13061                       # Per bank write bursts
system.mem_ctrls3.perBankRdBursts::14           13312                       # Per bank write bursts
system.mem_ctrls3.perBankRdBursts::15           13401                       # Per bank write bursts
system.mem_ctrls3.perBankWrBursts::0             3684                       # Per bank write bursts
system.mem_ctrls3.perBankWrBursts::1             3769                       # Per bank write bursts
system.mem_ctrls3.perBankWrBursts::2             3752                       # Per bank write bursts
system.mem_ctrls3.perBankWrBursts::3             3975                       # Per bank write bursts
system.mem_ctrls3.perBankWrBursts::4             3768                       # Per bank write bursts
system.mem_ctrls3.perBankWrBursts::5             3909                       # Per bank write bursts
system.mem_ctrls3.perBankWrBursts::6             3808                       # Per bank write bursts
system.mem_ctrls3.perBankWrBursts::7             3773                       # Per bank write bursts
system.mem_ctrls3.perBankWrBursts::8             3662                       # Per bank write bursts
system.mem_ctrls3.perBankWrBursts::9             3908                       # Per bank write bursts
system.mem_ctrls3.perBankWrBursts::10            3671                       # Per bank write bursts
system.mem_ctrls3.perBankWrBursts::11            3622                       # Per bank write bursts
system.mem_ctrls3.perBankWrBursts::12            3573                       # Per bank write bursts
system.mem_ctrls3.perBankWrBursts::13            3595                       # Per bank write bursts
system.mem_ctrls3.perBankWrBursts::14            3795                       # Per bank write bursts
system.mem_ctrls3.perBankWrBursts::15            3708                       # Per bank write bursts
system.mem_ctrls3.numRdRetry                      128                       # Number of times read queue was full causing retry
system.mem_ctrls3.numWrRetry                      258                       # Number of times write queue was full causing retry
system.mem_ctrls3.totGap                  59709231500                       # Total gap between requests
system.mem_ctrls3.readPktSize::0                    0                       # Read request sizes (log2)
system.mem_ctrls3.readPktSize::1                    0                       # Read request sizes (log2)
system.mem_ctrls3.readPktSize::2                    0                       # Read request sizes (log2)
system.mem_ctrls3.readPktSize::3                    0                       # Read request sizes (log2)
[...]
system.ruby.L2Cache_Controller.IS.Mem_Data::total        13541                      
system.ruby.L2Cache_Controller.IM.Mem_Data |        6009      3.16%      3.16% |        5933      3.12%      6.28% |        5941      3.12%      9.40% |        5950      3.13%     12.53% |        5948      3.13%     15.66% |        5946      3.13%     18.78% |        5940      3.12%     21.91% |        5927      3.12%     25.02% |        5949      3.13%     28.15% |        5944      3.13%     31.28% |        5929      3.12%     34.39% |        5949      3.13%     37.52% |        5939      3.12%     40.64% |        5934      3.12%     43.76% |        5932      3.12%     46.88% |        5932      3.12%     50.00% |        5946      3.13%     53.13% |        5946      3.13%     56.25% |        5947      3.13%     59.38% |        5937      3.12%     62.50% |        5943      3.12%     65.63% |        5952      3.13%     68.75% |        5932      3.12%     71.87% |        5940      3.12%     75.00% |        5947      3.13%     78.12% |        5943      3.12%     81.25% |        5953      3.13%     84.38% |        5943      3.12%     87.50% |        5941      3.12%     90.63% |        5946      3.13%     93.75% |        5954      3.13%     96.88% |        5931      3.12%    100.00%
system.ruby.L2Cache_Controller.IM.Mem_Data::total       190203                      
system.ruby.L2Cache_Controller.SS_MB.Exclusive_Unblock |         213     81.30%     81.30% |           6      2.29%     83.59% |           3      1.15%     84.73% |           6      2.29%     87.02% |           0      0.00%     87.02% |           1      0.38%     87.40% |           1      0.38%     87.79% |           0      0.00%     87.79% |           0      0.00%     87.79% |           1      0.38%     88.17% |           0      0.00%     88.17% |           0      0.00%     88.17% |           5      1.91%     90.08% |           0      0.00%     90.08% |           2      0.76%     90.84% |           1      0.38%     91.22% |           0      0.00%     91.22% |           0      0.00%     91.22% |          10      3.82%     95.04% |           2      0.76%     95.80% |           0      0.00%     95.80% |           0      0.00%     95.80% |           0      0.00%     95.80% |           0      0.00%     95.80% |           1      0.38%     96.18% |           0      0.00%     96.18% |           2      0.76%     96.95% |           1      0.38%     97.33% |           4      1.53%     98.85% |           1      0.38%     99.24% |           1      0.38%     99.62% |           1      0.38%    100.00%
system.ruby.L2Cache_Controller.SS_MB.Exclusive_Unblock::total          262                      
system.ruby.L2Cache_Controller.MT_MB.L1_GETS |           0      0.00%      0.00% |           0      0.00%      0.00% |           0      0.00%      0.00% |           1      9.09%      9.09% |           0      0.00%      9.09% |           0      0.00%      9.09% |           0      0.00%      9.09% |           0      0.00%      9.09% |           0      0.00%      9.09% |           0      0.00%      9.09% |           0      0.00%      9.09% |           0      0.00%      9.09% |           0      0.00%      9.09% |           0      0.00%      9.09% |           0      0.00%      9.09% |           0      0.00%      9.09% |           0      0.00%      9.09% |           5     45.45%     54.55% |           5     45.45%    100.00% |           0      0.00%    100.00% |           0      0.00%    100.00% |           0      0.00%    100.00% |           0      0.00%    100.00% |           0      0.00%    100.00% |           0      0.00%    100.00% |           0      0.00%    100.00% |           0      0.00%    100.00% |           0      0.00%    100.00% |           0      0.00%    100.00% |           0      0.00%    100.00% |           0      0.00%    100.00% |           0      0.00%    100.00%
system.ruby.L2Cache_Controller.MT_MB.L1_GETS::total           11                      
system.ruby.L2Cache_Controller.MT_MB.Exclusive_Unblock |       77647      7.09%      7.09% |       33387      3.05%     10.14% |       32684      2.98%     13.13% |       32853      3.00%     16.13% |       33105      3.02%     19.15% |       32033      2.93%     22.07% |       31956      2.92%     24.99% |       31673      2.89%     27.89% |       33957      3.10%     30.99% |       32355      2.95%     33.94% |       34303      3.13%     37.07% |       33124      3.03%     40.10% |       32693      2.99%     43.09% |       31744      2.90%     45.98% |       31777      2.90%     48.89% |       31669      2.89%     51.78% |       34275      3.13%     54.91% |       32114      2.93%     57.84% |       32965      3.01%     60.85% |       32541      2.97%     63.82% |       33033      3.02%     66.84% |       32475      2.97%     69.81% |       33014      3.02%     72.82% |       32009      2.92%     75.75% |       33647      3.07%     78.82% |       32343      2.95%     81.77% |       32844      3.00%     84.77% |       31817      2.91%     87.68% |       33165      3.03%     90.71% |       31904      2.91%     93.62% |       34282      3.13%     96.75% |       35576      3.25%    100.00%
system.ruby.L2Cache_Controller.MT_MB.Exclusive_Unblock::total      1094964                      
system.ruby.L2Cache_Controller.MT_IIB.L1_GETS |           1      5.88%      5.88% |           1      5.88%     11.76% |           1      5.88%     17.65% |           0      0.00%     17.65% |           0      0.00%     17.65% |           0      0.00%     17.65% |           0      0.00%     17.65% |           0      0.00%     17.65% |           0      0.00%     17.65% |           0      0.00%     17.65% |           0      0.00%     17.65% |           0      0.00%     17.65% |           0      0.00%     17.65% |           0      0.00%     17.65% |           0      0.00%     17.65% |           0      0.00%     17.65% |           0      0.00%     17.65% |           5     29.41%     47.06% |           4     23.53%     70.59% |           5     29.41%    100.00% |           0      0.00%    100.00% |           0      0.00%    100.00% |           0      0.00%    100.00% |           0      0.00%    100.00% |           0      0.00%    100.00% |           0      0.00%    100.00% |           0      0.00%    100.00% |           0      0.00%    100.00% |           0      0.00%    100.00% |           0      0.00%    100.00% |           0      0.00%    100.00% |           0      0.00%    100.00%
system.ruby.L2Cache_Controller.MT_IIB.L1_GETS::total           17                      
system.ruby.L2Cache_Controller.MT_IIB.WB_Data |         180      7.77%      7.77% |          71      3.06%     10.83% |          69      2.98%     13.81% |          63      2.72%     16.52% |          69      2.98%     19.50% |          69      2.98%     22.48% |          69      2.98%     25.45% |          69      2.98%     28.43% |          69      2.98%     31.41% |          69      2.98%     34.38% |          67      2.89%     37.27% |          68      2.93%     40.21% |          73      3.15%     43.36% |          69      2.98%     46.33% |          69      2.98%     49.31% |          69      2.98%     52.29% |          69      2.98%     55.26% |          69      2.98%     58.24% |          70      3.02%     61.26% |          69      2.98%     64.24% |          69      2.98%     67.21% |          69      2.98%     70.19% |          71      3.06%     73.25% |          69      2.98%     76.23% |          69      2.98%     79.21% |          69      2.98%     82.18% |          69      2.98%     85.16% |          68      2.93%     88.09% |          69      2.98%     91.07% |          69      2.98%     94.05% |          69      2.98%     97.02% |          69      2.98%    100.00%
system.ruby.L2Cache_Controller.MT_IIB.WB_Data::total         2318                      
system.ruby.L2Cache_Controller.MT_IIB.WB_Data_clean |         592     96.73%     96.73% |           4      0.65%     97.39% |           3      0.49%     97.88% |           3      0.49%     98.37% |           0      0.00%     98.37% |           0      0.00%     98.37% |           0      0.00%     98.37% |           0      0.00%     98.37% |           0      0.00%     98.37% |           0      0.00%     98.37% |           0      0.00%     98.37% |           0      0.00%     98.37% |           0      0.00%     98.37% |           0      0.00%     98.37% |           1      0.16%     98.53% |           0      0.00%     98.53% |           1      0.16%     98.69% |           3      0.49%     99.18% |           3      0.49%     99.67% |           2      0.33%    100.00% |           0      0.00%    100.00% |           0      0.00%    100.00% |           0      0.00%    100.00% |           0      0.00%    100.00% |           0      0.00%    100.00% |           0      0.00%    100.00% |           0      0.00%    100.00% |           0      0.00%    100.00% |           0      0.00%    100.00% |           0      0.00%    100.00% |           0      0.00%    100.00% |           0      0.00%    100.00%
system.ruby.L2Cache_Controller.MT_IIB.WB_Data_clean::total          612                      
system.ruby.L2Cache_Controller.MT_IIB.Unblock |           0      0.00%      0.00% |           0      0.00%      0.00% |           0      0.00%      0.00% |           6     42.86%     42.86% |           0      0.00%     42.86% |           0      0.00%     42.86% |           0      0.00%     42.86% |           0      0.00%     42.86% |           0      0.00%     42.86% |           0      0.00%     42.86% |           2     14.29%     57.14% |           1      7.14%     64.29% |           0      0.00%     64.29% |           0      0.00%     64.29% |           0      0.00%     64.29% |           0      0.00%     64.29% |           0      0.00%     64.29% |           0      0.00%     64.29% |           0      0.00%     64.29% |           1      7.14%     71.43% |           0      0.00%     71.43% |           0      0.00%     71.43% |           0      0.00%     71.43% |           0      0.00%     71.43% |           0      0.00%     71.43% |           1      7.14%     78.57% |           0      0.00%     78.57% |           1      7.14%     85.71% |           2     14.29%    100.00% |           0      0.00%    100.00% |           0      0.00%    100.00% |           0      0.00%    100.00%
system.ruby.L2Cache_Controller.MT_IIB.Unblock::total           14                      
system.ruby.L2Cache_Controller.MT_IB.WB_Data |           0      0.00%      0.00% |           0      0.00%      0.00% |           0      0.00%      0.00% |           6     42.86%     42.86% |           0      0.00%     42.86% |           0      0.00%     42.86% |           0      0.00%     42.86% |           0      0.00%     42.86% |           0      0.00%     42.86% |           0      0.00%     42.86% |           2     14.29%     57.14% |           1      7.14%     64.29% |           0      0.00%     64.29% |           0      0.00%     64.29% |           0      0.00%     64.29% |           0      0.00%     64.29% |           0      0.00%     64.29% |           0      0.00%     64.29% |           0      0.00%     64.29% |           1      7.14%     71.43% |           0      0.00%     71.43% |           0      0.00%     71.43% |           0      0.00%     71.43% |           0      0.00%     71.43% |           0      0.00%     71.43% |           1      7.14%     78.57% |           0      0.00%     78.57% |           1      7.14%     85.71% |           2     14.29%    100.00% |           0      0.00%    100.00% |           0      0.00%    100.00% |           0      0.00%    100.00%
system.ruby.L2Cache_Controller.MT_IB.WB_Data::total           14                      
system.ruby.L2Cache_Controller.MT_SB.L1_GETS |           0      0.00%      0.00% |           1     25.00%     25.00% |           1     25.00%     50.00% |           2     50.00%    100.00% |           0      0.00%    100.00% |           0      0.00%    100.00% |           0      0.00%    100.00% |           0      0.00%    100.00% |           0      0.00%    100.00% |           0      0.00%    100.00% |           0      0.00%    100.00% |           0      0.00%    100.00% |           0      0.00%    100.00% |           0      0.00%    100.00% |           0      0.00%    100.00% |           0      0.00%    100.00% |           0      0.00%    100.00% |           0      0.00%    100.00% |           0      0.00%    100.00% |           0      0.00%    100.00% |           0      0.00%    100.00% |           0      0.00%    100.00% |           0      0.00%    100.00% |           0      0.00%    100.00% |           0      0.00%    100.00% |           0      0.00%    100.00% |           0      0.00%    100.00% |           0      0.00%    100.00% |           0      0.00%    100.00% |           0      0.00%    100.00% |           0      0.00%    100.00% |           0      0.00%    100.00%
system.ruby.L2Cache_Controller.MT_SB.L1_GETS::total            4                      
system.ruby.L2Cache_Controller.MT_SB.Unblock |         772     26.35%     26.35% |          75      2.56%     28.91% |          72      2.46%     31.37% |          66      2.25%     33.62% |          69      2.35%     35.97% |          69      2.35%     38.33% |          69      2.35%     40.68% |          69      2.35%     43.04% |          69      2.35%     45.39% |          69      2.35%     47.75% |          67      2.29%     50.03% |          68      2.32%     52.35% |          73      2.49%     54.85% |          69      2.35%     57.20% |          70      2.39%     59.59% |          69      2.35%     61.95% |          70      2.39%     64.33% |          72      2.46%     66.79% |          73      2.49%     69.28% |          71      2.42%     71.71% |          69      2.35%     74.06% |          69      2.35%     76.42% |          71      2.42%     78.84% |          69      2.35%     81.19% |          69      2.35%     83.55% |          69      2.35%     85.90% |          69      2.35%     88.26% |          68      2.32%     90.58% |          69      2.35%     92.94% |          69      2.35%     95.29% |          69      2.35%     97.65% |          69      2.35%    100.00%
system.ruby.L2Cache_Controller.MT_SB.Unblock::total         2930                      
system.ruby.SimicsNetworkPortInterface_Controller.MessageSend |       84570      4.66%      4.66% |      907441     50.00%     54.66% |      113834      6.27%     60.93% |      103049      5.68%     66.61% |      101740      5.61%     72.22% |      103944      5.73%     77.94% |      101323      5.58%     83.53% |      102874      5.67%     89.19% |       97320      5.36%     94.56% |       98787      5.44%    100.00% |           0      0.00%    100.00% |           0      0.00%    100.00% |           0      0.00%    100.00% |           0      0.00%    100.00% |           0      0.00%    100.00% |           0      0.00%    100.00% |           0      0.00%    100.00% |           0      0.00%    100.00% |           0      0.00%    100.00% |           0      0.00%    100.00% |           0      0.00%    100.00% |           0      0.00%    100.00% |           0      0.00%    100.00% |           0      0.00%    100.00% |           0      0.00%    100.00% |           0      0.00%    100.00% |           0      0.00%    100.00% |           0      0.00%    100.00% |           0      0.00%    100.00% |           0      0.00%    100.00% |           0      0.00%    100.00% |           0      0.00%    100.00%
system.ruby.SimicsNetworkPortInterface_Controller.MessageSend::total      1814882                      
system.ruby.SimicsNetworkPortInterface_Controller.MessageRecv |       84570      4.66%      4.66% |      907441     50.00%     54.66% |      113834      6.27%     60.93% |      103049      5.68%     66.61% |      101740      5.61%     72.22% |      103944      5.73%     77.94% |      101323      5.58%     83.53% |      102874      5.67%     89.19% |       97320      5.36%     94.56% |       98787      5.44%    100.00% |           0      0.00%    100.00% |           0      0.00%    100.00% |           0      0.00%    100.00% |           0      0.00%    100.00% |           0      0.00%    100.00% |           0      0.00%    100.00% |           0      0.00%    100.00% |           0      0.00%    100.00% |           0      0.00%    100.00% |           0      0.00%    100.00% |           0      0.00%    100.00% |           0      0.00%    100.00% |           0      0.00%    100.00% |           0      0.00%    100.00% |           0      0.00%    100.00% |           0      0.00%    100.00% |           0      0.00%    100.00% |           0      0.00%    100.00% |           0      0.00%    100.00% |           0      0.00%    100.00% |           0      0.00%    100.00% |           0      0.00%    100.00%
system.ruby.SimicsNetworkPortInterface_Controller.MessageRecv::total      1814882                      
system.ruby.SimicsNetworkPortInterface_Controller.A.MessageSend |       84570      4.66%      4.66% |      907441     50.00%     54.66% |      113834      6.27%     60.93% |      103049      5.68%     66.61% |      101740      5.61%     72.22% |      103944      5.73%     77.94% |      101323      5.58%     83.53% |      102874      5.67%     89.19% |       97320      5.36%     94.56% |       98787      5.44%    100.00% |           0      0.00%    100.00% |           0      0.00%    100.00% |           0      0.00%    100.00% |           0      0.00%    100.00% |           0      0.00%    100.00% |           0      0.00%    100.00% |           0      0.00%    100.00% |           0      0.00%    100.00% |           0      0.00%    100.00% |           0      0.00%    100.00% |           0      0.00%    100.00% |           0      0.00%    100.00% |           0      0.00%    100.00% |           0      0.00%    100.00% |           0      0.00%    100.00% |           0      0.00%    100.00% |           0      0.00%    100.00% |           0      0.00%    100.00% |           0      0.00%    100.00% |           0      0.00%    100.00% |           0      0.00%    100.00% |           0      0.00%    100.00%
system.ruby.SimicsNetworkPortInterface_Controller.A.MessageSend::total      1814882                      
system.ruby.SimicsNetworkPortInterface_Controller.A.MessageRecv |       84570      4.66%      4.66% |      907441     50.00%     54.66% |      113834      6.27%     60.93% |      103049      5.68%     66.61% |      101740      5.61%     72.22% |      103944      5.73%     77.94% |      101323      5.58%     83.53% |      102874      5.67%     89.19% |       97320      5.36%     94.56% |       98787      5.44%    100.00% |           0      0.00%    100.00% |           0      0.00%    100.00% |           0      0.00%    100.00% |           0      0.00%    100.00% |           0      0.00%    100.00% |           0      0.00%    100.00% |           0      0.00%    100.00% |           0      0.00%    100.00% |           0      0.00%    100.00% |           0      0.00%    100.00% |           0      0.00%    100.00% |           0      0.00%    100.00% |           0      0.00%    100.00% |           0      0.00%    100.00% |           0      0.00%    100.00% |           0      0.00%    100.00% |           0      0.00%    100.00% |           0      0.00%    100.00% |           0      0.00%    100.00% |           0      0.00%    100.00% |           0      0.00%    100.00% |           0      0.00%    100.00%
system.ruby.SimicsNetworkPortInterface_Controller.A.MessageRecv::total      1814882                      
system.switch_cpus.kern.inst.arm                    0                       # number of arm instructions executed
system.switch_cpus.kern.inst.quiesce                0                       # number of quiesce instructions executed

---------- End Simulation Statistics   ----------
