
---------- Begin Simulation Statistics ----------
sim_seconds                                  0.059753                       # Number of seconds simulated
sim_ticks                                 59753432000                       # Number of ticks simulated
final_tick                               5235921510500                       # Number of ticks from beginning of simulation (restored from checkpoints and never reset)
sim_freq                                 1000000000000                       # Frequency of simulated ticks
host_inst_rate                                  92336                       # Simulator instruction rate (inst/s)
host_op_rate                                   164273                       # Simulator op (including micro ops) rate (op/s)
host_tick_rate                              138842372                       # Simulator tick rate (ticks/s)
host_mem_usage                                4818660                       # Number of bytes of host memory used
host_seconds                                   430.37                       # Real time elapsed on the host
sim_insts                                    39738369                       # Number of instructions simulated
sim_ops                                      70698067                       # Number of ops (including micro ops) simulated
system.voltage_domain.voltage                       1                       # Voltage in Volts
system.clk_domain.clock                           500                       # Clock period in ticks
system.mem_ctrls0.bytes_read::ruby.dir_cntrl0     14034496                       # Number of bytes read from this memory
system.mem_ctrls0.bytes_read::total          14034496                       # Number of bytes read from this memory
system.mem_ctrls0.bytes_written::ruby.dir_cntrl0      4007680                       # Number of bytes written to this memory
system.mem_ctrls0.bytes_written::total        4007680                       # Number of bytes written to this memory
system.mem_ctrls0.num_reads::ruby.dir_cntrl0       219289                       # Number of read requests responded to by this memory
system.mem_ctrls0.num_reads::total             219289                       # Number of read requests responded to by this memory
system.mem_ctrls0.num_writes::ruby.dir_cntrl0        62620                       # Number of write requests responded to by this memory
system.mem_ctrls0.num_writes::total             62620                       # Number of write requests responded to by this memory
system.mem_ctrls0.bw_read::ruby.dir_cntrl0    234873471                       # Total read bandwidth from this memory (bytes/s)
system.mem_ctrls0.bw_read::total            234873471                       # Total read bandwidth from this memory (bytes/s)
system.mem_ctrls0.bw_write::ruby.dir_cntrl0     67070290                       # Write bandwidth from this memory (bytes/s)
system.mem_ctrls0.bw_write::total            67070290                       # Write bandwidth from this memory (bytes/s)
system.mem_ctrls0.bw_total::ruby.dir_cntrl0    301943761                       # Total bandwidth to/from this memory (bytes/s)
system.mem_ctrls0.bw_total::total           301943761                       # Total bandwidth to/from this memory (bytes/s)
system.mem_ctrls0.readReqs                     219289                       # Number of read requests accepted
system.mem_ctrls0.writeReqs                     62620                       # Number of write requests accepted
system.mem_ctrls0.readBursts                   219289                       # Number of DRAM read bursts, including those serviced by the write queue
system.mem_ctrls0.writeBursts                   62620                       # Number of DRAM write bursts, including those merged in the write queue
system.mem_ctrls0.bytesReadDRAM              14032768                       # Total number of bytes read from DRAM
system.mem_ctrls0.bytesReadWrQ                   1728                       # Total number of bytes read from write queue
system.mem_ctrls0.bytesWritten                4007424                       # Total number of bytes written to DRAM
system.mem_ctrls0.bytesReadSys               14034496                       # Total read bytes from the system interface side
system.mem_ctrls0.bytesWrittenSys             4007680                       # Total written bytes from the system interface side
system.mem_ctrls0.servicedByWrQ                    27                       # Number of DRAM read bursts serviced by the write queue
system.mem_ctrls0.mergedWrBursts                    0                       # Number of DRAM write bursts merged with an existing one
system.mem_ctrls0.neitherReadNorWriteReqs            0                       # Number of requests that are neither read nor write
system.mem_ctrls0.perBankRdBursts::0            13461                       # Per bank write bursts
system.mem_ctrls0.perBankRdBursts::1            13998                       # Per bank write bursts
system.mem_ctrls0.perBankRdBursts::2            13664                       # Per bank write bursts
system.mem_ctrls0.perBankRdBursts::3            14063                       # Per bank write bursts
system.mem_ctrls0.perBankRdBursts::4            13702                       # Per bank write bursts
system.mem_ctrls0.perBankRdBursts::5            14281                       # Per bank write bursts
system.mem_ctrls0.perBankRdBursts::6            13741                       # Per bank write bursts
system.mem_ctrls0.perBankRdBursts::7            13671                       # Per bank write bursts
system.mem_ctrls0.perBankRdBursts::8            13564                       # Per bank write bursts
system.mem_ctrls0.perBankRdBursts::9            13898                       # Per bank write bursts
system.mem_ctrls0.perBankRdBursts::10           13605                       # Per bank write bursts
system.mem_ctrls0.perBankRdBursts::11           13835                       # Per bank write bursts
system.mem_ctrls0.perBankRdBursts::12           13385                       # Per bank write bursts
system.mem_ctrls0.perBankRdBursts::13           13265                       # Per bank write bursts
system.mem_ctrls0.perBankRdBursts::14           13559                       # Per bank write bursts
system.mem_ctrls0.perBankRdBursts::15           13570                       # Per bank write bursts
system.mem_ctrls0.perBankWrBursts::0             3845                       # Per bank write bursts
system.mem_ctrls0.perBankWrBursts::1             3927                       # Per bank write bursts
system.mem_ctrls0.perBankWrBursts::2             3906                       # Per bank write bursts
system.mem_ctrls0.perBankWrBursts::3             4132                       # Per bank write bursts
system.mem_ctrls0.perBankWrBursts::4             3927                       # Per bank write bursts
system.mem_ctrls0.perBankWrBursts::5             4074                       # Per bank write bursts
system.mem_ctrls0.perBankWrBursts::6             3983                       # Per bank write bursts
system.mem_ctrls0.perBankWrBursts::7             3947                       # Per bank write bursts
system.mem_ctrls0.perBankWrBursts::8             3818                       # Per bank write bursts
system.mem_ctrls0.perBankWrBursts::9             4072                       # Per bank write bursts
system.mem_ctrls0.perBankWrBursts::10            3841                       # Per bank write bursts
system.mem_ctrls0.perBankWrBursts::11            3777                       # Per bank write bursts
system.mem_ctrls0.perBankWrBursts::12            3724                       # Per bank write bursts
system.mem_ctrls0.perBankWrBursts::13            3761                       # Per bank write bursts
system.mem_ctrls0.perBankWrBursts::14            4009                       # Per bank write bursts
system.mem_ctrls0.perBankWrBursts::15            3873                       # Per bank write bursts
system.mem_ctrls0.numRdRetry                      782                       # Number of times read queue was full causing retry
system.mem_ctrls0.numWrRetry                      310                       # Number of times write queue was full causing retry
system.mem_ctrls0.totGap                  59752940500                       # Total gap between requests
system.mem_ctrls0.readPktSize::0                    0                       # Read request sizes (log2)
system.mem_ctrls0.readPktSize::1                    0                       # Read request sizes (log2)
system.mem_ctrls0.readPktSize::2                    0                       # Read request sizes (log2)
system.mem_ctrls0.readPktSize::3                    0                       # Read request sizes (log2)
system.mem_ctrls0.readPktSize::4                    0                       # Read request sizes (log2)
system.mem_ctrls0.readPktSize::5                    0                       # Read request sizes (log2)
system.mem_ctrls0.readPktSize::6               219289                       # Read request sizes (log2)
system.mem_ctrls0.writePktSize::0                   0                       # Write request sizes (log2)
system.mem_ctrls0.writePktSize::1                   0                       # Write request sizes (log2)
system.mem_ctrls0.writePktSize::2                   0                       # Write request sizes (log2)
system.mem_ctrls0.writePktSize::3                   0                       # Write request sizes (log2)
system.mem_ctrls0.writePktSize::4                   0                       # Write request sizes (log2)
system.mem_ctrls0.writePktSize::5                   0                       # Write request sizes (log2)
system.mem_ctrls0.writePktSize::6               62620                       # Write request sizes (log2)
system.mem_ctrls0.rdQLenPdf::0                 160627                       # What read queue length does an incoming req see
system.mem_ctrls0.rdQLenPdf::1                  42640                       # What read queue length does an incoming req see
system.mem_ctrls0.rdQLenPdf::2                  11211                       # What read queue length does an incoming req see
system.mem_ctrls0.rdQLenPdf::3                   2560                       # What read queue length does an incoming req see
system.mem_ctrls0.rdQLenPdf::4                    610                       # What read queue length does an incoming req see
system.mem_ctrls0.rdQLenPdf::5                    157                       # What read queue length does an incoming req see
system.mem_ctrls0.rdQLenPdf::6                     68                       # What read queue length does an incoming req see
system.mem_ctrls0.rdQLenPdf::7                     44                       # What read queue length does an incoming req see
system.mem_ctrls0.rdQLenPdf::8                     33                       # What read queue length does an incoming req see
system.mem_ctrls0.rdQLenPdf::9                     22                       # What read queue length does an incoming req see
system.mem_ctrls0.rdQLenPdf::10                    19                       # What read queue length does an incoming req see
system.mem_ctrls0.rdQLenPdf::11                    21                       # What read queue length does an incoming req see
system.mem_ctrls0.rdQLenPdf::12                    23                       # What read queue length does an incoming req see
system.mem_ctrls0.rdQLenPdf::13                    28                       # What read queue length does an incoming req see
system.mem_ctrls0.rdQLenPdf::14                    31                       # What read queue length does an incoming req see
system.mem_ctrls0.rdQLenPdf::15                    31                       # What read queue length does an incoming req see
system.mem_ctrls0.rdQLenPdf::16                    23                       # What read queue length does an incoming req see
system.mem_ctrls0.rdQLenPdf::17                    24                       # What read queue length does an incoming req see
system.mem_ctrls0.rdQLenPdf::18                    25                       # What read queue length does an incoming req see
system.mem_ctrls0.rdQLenPdf::19                    19                       # What read queue length does an incoming req see
system.mem_ctrls0.rdQLenPdf::20                    22                       # What read queue length does an incoming req see
system.mem_ctrls0.rdQLenPdf::21                    16                       # What read queue length does an incoming req see
system.mem_ctrls0.rdQLenPdf::22                    15                       # What read queue length does an incoming req see
system.mem_ctrls0.rdQLenPdf::23                    19                       # What read queue length does an incoming req see
system.mem_ctrls0.rdQLenPdf::24                    11                       # What read queue length does an incoming req see
system.mem_ctrls0.rdQLenPdf::25                    14                       # What read queue length does an incoming req see
system.mem_ctrls0.rdQLenPdf::26                    13                       # What read queue length does an incoming req see
system.mem_ctrls0.rdQLenPdf::27                    13                       # What read queue length does an incoming req see
system.mem_ctrls0.rdQLenPdf::28                    18                       # What read queue length does an incoming req see
system.mem_ctrls0.rdQLenPdf::29                    26                       # What read queue length does an incoming req see
system.mem_ctrls0.rdQLenPdf::30                    30                       # What read queue length does an incoming req see
system.mem_ctrls0.rdQLenPdf::31                   849                       # What read queue length does an incoming req see
system.mem_ctrls0.wrQLenPdf::0                  12230                       # What write queue length does an incoming req see
system.mem_ctrls0.wrQLenPdf::1                  12398                       # What write queue length does an incoming req see
system.mem_ctrls0.wrQLenPdf::2                  12393                       # What write queue length does an incoming req see
system.mem_ctrls0.wrQLenPdf::3                  12351                       # What write queue length does an incoming req see
system.mem_ctrls0.wrQLenPdf::4                  12343                       # What write queue length does an incoming req see
system.mem_ctrls0.wrQLenPdf::5                    219                       # What write queue length does an incoming req see
system.mem_ctrls0.wrQLenPdf::6                    168                       # What write queue length does an incoming req see
system.mem_ctrls0.wrQLenPdf::7                    518                       # What write queue length does an incoming req see
system.mem_ctrls0.bytesPerActivate::samples        85413                       # Bytes accessed per row activation
system.mem_ctrls0.bytesPerActivate::mean   211.206819                       # Bytes accessed per row activation
system.mem_ctrls0.bytesPerActivate::gmean   136.115079                       # Bytes accessed per row activation
system.mem_ctrls0.bytesPerActivate::stdev   239.805912                       # Bytes accessed per row activation
system.mem_ctrls0.bytesPerActivate::0-127        41250     48.29%     48.29% # Bytes accessed per row activation
system.mem_ctrls0.bytesPerActivate::128-255        17971     21.04%     69.33% # Bytes accessed per row activation
system.mem_ctrls0.bytesPerActivate::256-383        14912     17.46%     86.79% # Bytes accessed per row activation
system.mem_ctrls0.bytesPerActivate::384-511         2606      3.05%     89.84% # Bytes accessed per row activation
system.mem_ctrls0.bytesPerActivate::512-639         1779      2.08%     91.93% # Bytes accessed per row activation
system.mem_ctrls0.bytesPerActivate::640-767         1232      1.44%     93.37% # Bytes accessed per row activation
system.mem_ctrls0.bytesPerActivate::768-895         1107      1.30%     94.67% # Bytes accessed per row activation
system.mem_ctrls0.bytesPerActivate::896-1023          937      1.10%     95.76% # Bytes accessed per row activation
system.mem_ctrls0.bytesPerActivate::1024-1151         3619      4.24%    100.00% # Bytes accessed per row activation
system.mem_ctrls0.bytesPerActivate::total        85413                       # Bytes accessed per row activation
system.mem_ctrls0.rdPerTurnAround::samples        12262                       # Reads before turning the bus around for writes
system.mem_ctrls0.rdPerTurnAround::mean     17.722068                       # Reads before turning the bus around for writes
system.mem_ctrls0.rdPerTurnAround::stdev    74.244809                       # Reads before turning the bus around for writes
system.mem_ctrls0.rdPerTurnAround::0-127        11880     96.88%     96.88% # Reads before turning the bus around for writes
system.mem_ctrls0.rdPerTurnAround::128-255          192      1.57%     98.45% # Reads before turning the bus around for writes
system.mem_ctrls0.rdPerTurnAround::256-383          104      0.85%     99.30% # Reads before turning the bus around for writes
system.mem_ctrls0.rdPerTurnAround::384-511           48      0.39%     99.69% # Reads before turning the bus around for writes
system.mem_ctrls0.rdPerTurnAround::512-639           20      0.16%     99.85% # Reads before turning the bus around for writes
system.mem_ctrls0.rdPerTurnAround::640-767            7      0.06%     99.91% # Reads before turning the bus around for writes
system.mem_ctrls0.rdPerTurnAround::768-895            1      0.01%     99.92% # Reads before turning the bus around for writes
system.mem_ctrls0.rdPerTurnAround::896-1023            4      0.03%     99.95% # Reads before turning the bus around for writes
system.mem_ctrls0.rdPerTurnAround::1152-1279            1      0.01%     99.96% # Reads before turning the bus around for writes
system.mem_ctrls0.rdPerTurnAround::1408-1535            1      0.01%     99.97% # Reads before turning the bus around for writes
system.mem_ctrls0.rdPerTurnAround::1536-1663            1      0.01%     99.98% # Reads before turning the bus around for writes
system.mem_ctrls0.rdPerTurnAround::1792-1919            2      0.02%     99.99% # Reads before turning the bus around for writes
system.mem_ctrls0.rdPerTurnAround::3968-4095            1      0.01%    100.00% # Reads before turning the bus around for writes
system.mem_ctrls0.rdPerTurnAround::total        12262                       # Reads before turning the bus around for writes
system.mem_ctrls0.wrPerTurnAround::samples        12262                       # Writes before turning the bus around for reads
system.mem_ctrls0.wrPerTurnAround::mean      5.106508                       # Writes before turning the bus around for reads
system.mem_ctrls0.wrPerTurnAround::gmean     5.072322                       # Writes before turning the bus around for reads
system.mem_ctrls0.wrPerTurnAround::stdev     0.852411                       # Writes before turning the bus around for reads
system.mem_ctrls0.wrPerTurnAround::4-7          12162     99.18%     99.18% # Writes before turning the bus around for reads
system.mem_ctrls0.wrPerTurnAround::8-11            27      0.22%     99.40% # Writes before turning the bus around for reads
system.mem_ctrls0.wrPerTurnAround::12-15           19      0.15%     99.56% # Writes before turning the bus around for reads
system.mem_ctrls0.wrPerTurnAround::16-19           54      0.44%    100.00% # Writes before turning the bus around for reads
system.mem_ctrls0.wrPerTurnAround::total        12262                       # Writes before turning the bus around for reads
system.mem_ctrls0.totQLat                  3053021823                       # Total ticks spent queuing
system.mem_ctrls0.totMemAccLat             7164184323                       # Total ticks spent from burst creation until serviced by the DRAM
system.mem_ctrls0.totBusLat                1096310000                       # Total ticks spent in databus transfers
system.mem_ctrls0.avgQLat                    13924.08                       # Average queueing delay per DRAM burst
system.mem_ctrls0.avgBusLat                   5000.00                       # Average bus latency per DRAM burst
system.mem_ctrls0.avgMemAccLat               32674.08                       # Average memory access latency per DRAM burst
system.mem_ctrls0.avgRdBW                      234.84                       # Average DRAM read bandwidth in MiByte/s
system.mem_ctrls0.avgWrBW                       67.07                       # Average achieved write bandwidth in MiByte/s
system.mem_ctrls0.avgRdBWSys                   234.87                       # Average system read bandwidth in MiByte/s
system.mem_ctrls0.avgWrBWSys                    67.07                       # Average system write bandwidth in MiByte/s
system.mem_ctrls0.peakBW                     12800.00                       # Theoretical peak bandwidth in MiByte/s
system.mem_ctrls0.busUtil                        2.36                       # Data bus utilization in percentage
system.mem_ctrls0.busUtilRead                    1.83                       # Data bus utilization in percentage for reads
system.mem_ctrls0.busUtilWrite                   0.52                       # Data bus utilization in percentage for writes
system.mem_ctrls0.avgRdQLen                      1.12                       # Average read queue length when enqueuing
system.mem_ctrls0.avgWrQLen                      2.87                       # Average write queue length when enqueuing
system.mem_ctrls0.readRowHits                  158011                       # Number of row buffer hits during reads
system.mem_ctrls0.writeRowHits                  38451                       # Number of row buffer hits during writes
system.mem_ctrls0.readRowHitRate                72.06                       # Row buffer hit rate for reads
system.mem_ctrls0.writeRowHitRate               61.40                       # Row buffer hit rate for writes
system.mem_ctrls0.avgGap                    211958.26                       # Average gap between requests
system.mem_ctrls0.pageHitRate                   69.70                       # Row buffer hit rate, read and write combined
system.mem_ctrls0.memoryStateTime::IDLE   10793778500                       # Time in different power states
system.mem_ctrls0.memoryStateTime::REF     1995240000                       # Time in different power states
system.mem_ctrls0.memoryStateTime::PRE_PDN            0                       # Time in different power states
system.mem_ctrls0.memoryStateTime::ACT    46962947750                       # Time in different power states
system.mem_ctrls0.memoryStateTime::ACT_PDN            0                       # Time in different power states
system.mem_ctrls0.actEnergy::0              326418120                       # Energy for activate commands per rank (pJ)
system.mem_ctrls0.actEnergy::1              319304160                       # Energy for activate commands per rank (pJ)
system.mem_ctrls0.preEnergy::0              178105125                       # Energy for precharge commands per rank (pJ)
system.mem_ctrls0.preEnergy::1              174223500                       # Energy for precharge commands per rank (pJ)
system.mem_ctrls0.readEnergy::0             862516200                       # Energy for read commands per rank (pJ)
system.mem_ctrls0.readEnergy::1             847680600                       # Energy for read commands per rank (pJ)
system.mem_ctrls0.writeEnergy::0            205681680                       # Energy for write commands per rank (pJ)
system.mem_ctrls0.writeEnergy::1            200070000                       # Energy for write commands per rank (pJ)
system.mem_ctrls0.refreshEnergy::0         3902689440                       # Energy for refresh commands per rank (pJ)
system.mem_ctrls0.refreshEnergy::1         3902689440                       # Energy for refresh commands per rank (pJ)
system.mem_ctrls0.actBackEnergy::0        25621342965                       # Energy for active background per rank (pJ)
system.mem_ctrls0.actBackEnergy::1        24937965405                       # Energy for active background per rank (pJ)
system.mem_ctrls0.preBackEnergy::0        13376309250                       # Energy for precharge background per rank (pJ)
system.mem_ctrls0.preBackEnergy::1        13975763250                       # Energy for precharge background per rank (pJ)
system.mem_ctrls0.totalEnergy::0          44473062780                       # Total energy per rank (pJ)
system.mem_ctrls0.totalEnergy::1          44357696355                       # Total energy per rank (pJ)
system.mem_ctrls0.averagePower::0          744.294720                       # Core power per rank (mW)
system.mem_ctrls0.averagePower::1          742.363965                       # Core power per rank (mW)
system.mem_ctrls1.bytes_read::ruby.dir_cntrl1     13851136                       # Number of bytes read from this memory
system.mem_ctrls1.bytes_read::total          13851136                       # Number of bytes read from this memory
system.mem_ctrls1.bytes_written::ruby.dir_cntrl1      3840704                       # Number of bytes written to this memory
system.mem_ctrls1.bytes_written::total        3840704                       # Number of bytes written to this memory
system.mem_ctrls1.num_reads::ruby.dir_cntrl1       216424                       # Number of read requests responded to by this memory
system.mem_ctrls1.num_reads::total             216424                       # Number of read requests responded to by this memory
system.mem_ctrls1.num_writes::ruby.dir_cntrl1        60011                       # Number of write requests responded to by this memory
system.mem_ctrls1.num_writes::total             60011                       # Number of write requests responded to by this memory
system.mem_ctrls1.bw_read::ruby.dir_cntrl1    231804861                       # Total read bandwidth from this memory (bytes/s)
system.mem_ctrls1.bw_read::total            231804861                       # Total read bandwidth from this memory (bytes/s)
system.mem_ctrls1.bw_write::ruby.dir_cntrl1     64275873                       # Write bandwidth from this memory (bytes/s)
system.mem_ctrls1.bw_write::total            64275873                       # Write bandwidth from this memory (bytes/s)
system.mem_ctrls1.bw_total::ruby.dir_cntrl1    296080734                       # Total bandwidth to/from this memory (bytes/s)
system.mem_ctrls1.bw_total::total           296080734                       # Total bandwidth to/from this memory (bytes/s)
system.mem_ctrls1.readReqs                     216424                       # Number of read requests accepted
system.mem_ctrls1.writeReqs                     60011                       # Number of write requests accepted
system.mem_ctrls1.readBursts                   216424                       # Number of DRAM read bursts, including those serviced by the write queue
system.mem_ctrls1.writeBursts                   60011                       # Number of DRAM write bursts, including those merged in the write queue
system.mem_ctrls1.bytesReadDRAM              13849792                       # Total number of bytes read from DRAM
system.mem_ctrls1.bytesReadWrQ                   1344                       # Total number of bytes read from write queue
system.mem_ctrls1.bytesWritten                3840704                       # Total number of bytes written to DRAM
system.mem_ctrls1.bytesReadSys               13851136                       # Total read bytes from the system interface side
system.mem_ctrls1.bytesWrittenSys             3840704                       # Total written bytes from the system interface side
system.mem_ctrls1.servicedByWrQ                    21                       # Number of DRAM read bursts serviced by the write queue
system.mem_ctrls1.mergedWrBursts                    0                       # Number of DRAM write bursts merged with an existing one
system.mem_ctrls1.neitherReadNorWriteReqs            0                       # Number of requests that are neither read nor write
system.mem_ctrls1.perBankRdBursts::0            13290                       # Per bank write bursts
system.mem_ctrls1.perBankRdBursts::1            13819                       # Per bank write bursts
system.mem_ctrls1.perBankRdBursts::2            13485                       # Per bank write bursts
system.mem_ctrls1.perBankRdBursts::3            13893                       # Per bank write bursts
system.mem_ctrls1.perBankRdBursts::4            13534                       # Per bank write bursts
system.mem_ctrls1.perBankRdBursts::5            14119                       # Per bank write bursts
system.mem_ctrls1.perBankRdBursts::6            13534                       # Per bank write bursts
system.mem_ctrls1.perBankRdBursts::7            13509                       # Per bank write bursts
system.mem_ctrls1.perBankRdBursts::8            13401                       # Per bank write bursts
system.mem_ctrls1.perBankRdBursts::9            13712                       # Per bank write bursts
system.mem_ctrls1.perBankRdBursts::10           13419                       # Per bank write bursts
system.mem_ctrls1.perBankRdBursts::11           13658                       # Per bank write bursts
system.mem_ctrls1.perBankRdBursts::12           13210                       # Per bank write bursts
system.mem_ctrls1.perBankRdBursts::13           13105                       # Per bank write bursts
system.mem_ctrls1.perBankRdBursts::14           13294                       # Per bank write bursts
system.mem_ctrls1.perBankRdBursts::15           13421                       # Per bank write bursts
system.mem_ctrls1.perBankWrBursts::0             3687                       # Per bank write bursts
system.mem_ctrls1.perBankWrBursts::1             3780                       # Per bank write bursts
system.mem_ctrls1.perBankWrBursts::2             3765                       # Per bank write bursts
system.mem_ctrls1.perBankWrBursts::3             3979                       # Per bank write bursts
system.mem_ctrls1.perBankWrBursts::4             3771                       # Per bank write bursts
system.mem_ctrls1.perBankWrBursts::5             3925                       # Per bank write bursts
system.mem_ctrls1.perBankWrBursts::6             3803                       # Per bank write bursts
system.mem_ctrls1.perBankWrBursts::7             3779                       # Per bank write bursts
system.mem_ctrls1.perBankWrBursts::8             3663                       # Per bank write bursts
system.mem_ctrls1.perBankWrBursts::9             3898                       # Per bank write bursts
system.mem_ctrls1.perBankWrBursts::10            3679                       # Per bank write bursts
system.mem_ctrls1.perBankWrBursts::11            3611                       # Per bank write bursts
system.mem_ctrls1.perBankWrBursts::12            3566                       # Per bank write bursts
system.mem_ctrls1.perBankWrBursts::13            3595                       # Per bank write bursts
system.mem_ctrls1.perBankWrBursts::14            3794                       # Per bank write bursts
system.mem_ctrls1.perBankWrBursts::15            3716                       # Per bank write bursts
system.mem_ctrls1.numRdRetry                      488                       # Number of times read queue was full causing retry
system.mem_ctrls1.numWrRetry                      271                       # Number of times write queue was full causing retry
system.mem_ctrls1.totGap                  59752681500                       # Total gap between requests
system.mem_ctrls1.readPktSize::0                    0                       # Read request sizes (log2)
system.mem_ctrls1.readPktSize::1                    0                       # Read request sizes (log2)
system.mem_ctrls1.readPktSize::2                    0                       # Read request sizes (log2)
system.mem_ctrls1.readPktSize::3                    0                       # Read request sizes (log2)
system.mem_ctrls1.readPktSize::4                    0                       # Read request sizes (log2)
system.mem_ctrls1.readPktSize::5                    0                       # Read request sizes (log2)
system.mem_ctrls1.readPktSize::6               216424                       # Read request sizes (log2)
system.mem_ctrls1.writePktSize::0                   0                       # Write request sizes (log2)
system.mem_ctrls1.writePktSize::1                   0                       # Write request sizes (log2)
system.mem_ctrls1.writePktSize::2                   0                       # Write request sizes (log2)
system.mem_ctrls1.writePktSize::3                   0                       # Write request sizes (log2)
system.mem_ctrls1.writePktSize::4                   0                       # Write request sizes (log2)
system.mem_ctrls1.writePktSize::5                   0                       # Write request sizes (log2)
system.mem_ctrls1.writePktSize::6               60011                       # Write request sizes (log2)
system.mem_ctrls1.rdQLenPdf::0                 158508                       # What read queue length does an incoming req see
system.mem_ctrls1.rdQLenPdf::1                  42898                       # What read queue length does an incoming req see
system.mem_ctrls1.rdQLenPdf::2                  10845                       # What read queue length does an incoming req see
system.mem_ctrls1.rdQLenPdf::3                   2319                       # What read queue length does an incoming req see
system.mem_ctrls1.rdQLenPdf::4                    445                       # What read queue length does an incoming req see
system.mem_ctrls1.rdQLenPdf::5                    133                       # What read queue length does an incoming req see
system.mem_ctrls1.rdQLenPdf::6                     71                       # What read queue length does an incoming req see
system.mem_ctrls1.rdQLenPdf::7                     54                       # What read queue length does an incoming req see
system.mem_ctrls1.rdQLenPdf::8                     42                       # What read queue length does an incoming req see
system.mem_ctrls1.rdQLenPdf::9                     40                       # What read queue length does an incoming req see
system.mem_ctrls1.rdQLenPdf::10                    31                       # What read queue length does an incoming req see
system.mem_ctrls1.rdQLenPdf::11                    31                       # What read queue length does an incoming req see
system.mem_ctrls1.rdQLenPdf::12                    43                       # What read queue length does an incoming req see
system.mem_ctrls1.rdQLenPdf::13                    52                       # What read queue length does an incoming req see
system.mem_ctrls1.rdQLenPdf::14                    46                       # What read queue length does an incoming req see
system.mem_ctrls1.rdQLenPdf::15                    36                       # What read queue length does an incoming req see
system.mem_ctrls1.rdQLenPdf::16                    30                       # What read queue length does an incoming req see
system.mem_ctrls1.rdQLenPdf::17                    25                       # What read queue length does an incoming req see
system.mem_ctrls1.rdQLenPdf::18                    19                       # What read queue length does an incoming req see
system.mem_ctrls1.rdQLenPdf::19                    31                       # What read queue length does an incoming req see
system.mem_ctrls1.rdQLenPdf::20                    20                       # What read queue length does an incoming req see
system.mem_ctrls1.rdQLenPdf::21                    22                       # What read queue length does an incoming req see
system.mem_ctrls1.rdQLenPdf::22                    18                       # What read queue length does an incoming req see
system.mem_ctrls1.rdQLenPdf::23                    13                       # What read queue length does an incoming req see
system.mem_ctrls1.rdQLenPdf::24                    14                       # What read queue length does an incoming req see
system.mem_ctrls1.rdQLenPdf::25                    14                       # What read queue length does an incoming req see
system.mem_ctrls1.rdQLenPdf::26                    12                       # What read queue length does an incoming req see
system.mem_ctrls1.rdQLenPdf::27                    14                       # What read queue length does an incoming req see
system.mem_ctrls1.rdQLenPdf::28                    17                       # What read queue length does an incoming req see
system.mem_ctrls1.rdQLenPdf::29                    16                       # What read queue length does an incoming req see
system.mem_ctrls1.rdQLenPdf::30                    17                       # What read queue length does an incoming req see
system.mem_ctrls1.rdQLenPdf::31                   527                       # What read queue length does an incoming req see
system.mem_ctrls1.wrQLenPdf::0                  11712                       # What write queue length does an incoming req see
system.mem_ctrls1.wrQLenPdf::1                  11880                       # What write queue length does an incoming req see
system.mem_ctrls1.wrQLenPdf::2                  11892                       # What write queue length does an incoming req see
system.mem_ctrls1.wrQLenPdf::3                  11850                       # What write queue length does an incoming req see
system.mem_ctrls1.wrQLenPdf::4                  11837                       # What write queue length does an incoming req see
system.mem_ctrls1.wrQLenPdf::5                    238                       # What write queue length does an incoming req see
system.mem_ctrls1.wrQLenPdf::6                    164                       # What write queue length does an incoming req see
system.mem_ctrls1.wrQLenPdf::7                    438                       # What write queue length does an incoming req see
system.mem_ctrls1.bytesPerActivate::samples        80891                       # Bytes accessed per row activation
system.mem_ctrls1.bytesPerActivate::mean   218.689941                       # Bytes accessed per row activation
system.mem_ctrls1.bytesPerActivate::gmean   140.048149                       # Bytes accessed per row activation
system.mem_ctrls1.bytesPerActivate::stdev   246.272129                       # Bytes accessed per row activation
system.mem_ctrls1.bytesPerActivate::0-127        37893     46.84%     46.84% # Bytes accessed per row activation
system.mem_ctrls1.bytesPerActivate::128-255        17173     21.23%     68.07% # Bytes accessed per row activation
system.mem_ctrls1.bytesPerActivate::256-383        14450     17.86%     85.94% # Bytes accessed per row activation
system.mem_ctrls1.bytesPerActivate::384-511         2513      3.11%     89.04% # Bytes accessed per row activation
system.mem_ctrls1.bytesPerActivate::512-639         1849      2.29%     91.33% # Bytes accessed per row activation
system.mem_ctrls1.bytesPerActivate::640-767         1261      1.56%     92.89% # Bytes accessed per row activation
system.mem_ctrls1.bytesPerActivate::768-895         1069      1.32%     94.21% # Bytes accessed per row activation
system.mem_ctrls1.bytesPerActivate::896-1023         1005      1.24%     95.45% # Bytes accessed per row activation
system.mem_ctrls1.bytesPerActivate::1024-1151         3678      4.55%    100.00% # Bytes accessed per row activation
system.mem_ctrls1.bytesPerActivate::total        80891                       # Bytes accessed per row activation
system.mem_ctrls1.rdPerTurnAround::samples        11746                       # Reads before turning the bus around for writes
system.mem_ctrls1.rdPerTurnAround::mean     18.357313                       # Reads before turning the bus around for writes
system.mem_ctrls1.rdPerTurnAround::stdev    76.528052                       # Reads before turning the bus around for writes
system.mem_ctrls1.rdPerTurnAround::0-127        11391     96.98%     96.98% # Reads before turning the bus around for writes
system.mem_ctrls1.rdPerTurnAround::128-255          167      1.42%     98.40% # Reads before turning the bus around for writes
system.mem_ctrls1.rdPerTurnAround::256-383           88      0.75%     99.15% # Reads before turning the bus around for writes
system.mem_ctrls1.rdPerTurnAround::384-511           56      0.48%     99.63% # Reads before turning the bus around for writes
system.mem_ctrls1.rdPerTurnAround::512-639           20      0.17%     99.80% # Reads before turning the bus around for writes
system.mem_ctrls1.rdPerTurnAround::640-767            9      0.08%     99.87% # Reads before turning the bus around for writes
system.mem_ctrls1.rdPerTurnAround::768-895            4      0.03%     99.91% # Reads before turning the bus around for writes
system.mem_ctrls1.rdPerTurnAround::896-1023            2      0.02%     99.92% # Reads before turning the bus around for writes
system.mem_ctrls1.rdPerTurnAround::1152-1279            2      0.02%     99.94% # Reads before turning the bus around for writes
system.mem_ctrls1.rdPerTurnAround::1536-1663            1      0.01%     99.95% # Reads before turning the bus around for writes
system.mem_ctrls1.rdPerTurnAround::1664-1791            3      0.03%     99.97% # Reads before turning the bus around for writes
system.mem_ctrls1.rdPerTurnAround::1792-1919            2      0.02%     99.99% # Reads before turning the bus around for writes
system.mem_ctrls1.rdPerTurnAround::2816-2943            1      0.01%    100.00% # Reads before turning the bus around for writes
system.mem_ctrls1.rdPerTurnAround::total        11746                       # Reads before turning the bus around for writes
system.mem_ctrls1.wrPerTurnAround::samples        11746                       # Writes before turning the bus around for reads
system.mem_ctrls1.wrPerTurnAround::mean      5.109058                       # Writes before turning the bus around for reads
system.mem_ctrls1.wrPerTurnAround::gmean     5.075926                       # Writes before turning the bus around for reads
system.mem_ctrls1.wrPerTurnAround::stdev     0.828468                       # Writes before turning the bus around for reads
system.mem_ctrls1.wrPerTurnAround::4-7          11644     99.13%     99.13% # Writes before turning the bus around for reads
system.mem_ctrls1.wrPerTurnAround::8-11            43      0.37%     99.50% # Writes before turning the bus around for reads
system.mem_ctrls1.wrPerTurnAround::12-15           10      0.09%     99.58% # Writes before turning the bus around for reads
system.mem_ctrls1.wrPerTurnAround::16-19           49      0.42%    100.00% # Writes before turning the bus around for reads
system.mem_ctrls1.wrPerTurnAround::total        11746                       # Writes before turning the bus around for reads
system.mem_ctrls1.totQLat                  2820476882                       # Total ticks spent queuing
system.mem_ctrls1.totMemAccLat             6878033132                       # Total ticks spent from burst creation until serviced by the DRAM
system.mem_ctrls1.totBusLat                1082015000                       # Total ticks spent in databus transfers
system.mem_ctrls1.avgQLat                    13033.45                       # Average queueing delay per DRAM burst
system.mem_ctrls1.avgBusLat                   5000.00                       # Average bus latency per DRAM burst
system.mem_ctrls1.avgMemAccLat               31783.45                       # Average memory access latency per DRAM burst
system.mem_ctrls1.avgRdBW                      231.78                       # Average DRAM read bandwidth in MiByte/s
system.mem_ctrls1.avgWrBW                       64.28                       # Average achieved write bandwidth in MiByte/s
system.mem_ctrls1.avgRdBWSys                   231.80                       # Average system read bandwidth in MiByte/s
system.mem_ctrls1.avgWrBWSys                    64.28                       # Average system write bandwidth in MiByte/s
system.mem_ctrls1.peakBW                     12800.00                       # Theoretical peak bandwidth in MiByte/s
system.mem_ctrls1.busUtil                        2.31                       # Data bus utilization in percentage
system.mem_ctrls1.busUtilRead                    1.81                       # Data bus utilization in percentage for reads
system.mem_ctrls1.busUtilWrite                   0.50                       # Data bus utilization in percentage for writes
system.mem_ctrls1.avgRdQLen                      1.10                       # Average read queue length when enqueuing
system.mem_ctrls1.avgWrQLen                      2.92                       # Average write queue length when enqueuing
system.mem_ctrls1.readRowHits                  156737                       # Number of row buffer hits during reads
system.mem_ctrls1.writeRowHits                  38783                       # Number of row buffer hits during writes
system.mem_ctrls1.readRowHitRate                72.43                       # Row buffer hit rate for reads
system.mem_ctrls1.writeRowHitRate               64.63                       # Row buffer hit rate for writes
system.mem_ctrls1.avgGap                    216154.54                       # Average gap between requests
system.mem_ctrls1.pageHitRate                   70.73                       # Row buffer hit rate, read and write combined
system.mem_ctrls1.memoryStateTime::IDLE   11222720000                       # Time in different power states
system.mem_ctrls1.memoryStateTime::REF     1995240000                       # Time in different power states
system.mem_ctrls1.memoryStateTime::PRE_PDN            0                       # Time in different power states
system.mem_ctrls1.memoryStateTime::ACT    46534199000                       # Time in different power states
system.mem_ctrls1.memoryStateTime::ACT_PDN            0                       # Time in different power states
system.mem_ctrls1.actEnergy::0              309778560                       # Energy for activate commands per rank (pJ)
system.mem_ctrls1.actEnergy::1              301757400                       # Energy for activate commands per rank (pJ)
system.mem_ctrls1.preEnergy::0              169026000                       # Energy for precharge commands per rank (pJ)
system.mem_ctrls1.preEnergy::1              164649375                       # Energy for precharge commands per rank (pJ)
system.mem_ctrls1.readEnergy::0             851611800                       # Energy for read commands per rank (pJ)
system.mem_ctrls1.readEnergy::1             836277000                       # Energy for read commands per rank (pJ)
system.mem_ctrls1.writeEnergy::0            197568720                       # Energy for write commands per rank (pJ)
system.mem_ctrls1.writeEnergy::1            191302560                       # Energy for write commands per rank (pJ)
system.mem_ctrls1.refreshEnergy::0         3902689440                       # Energy for refresh commands per rank (pJ)
system.mem_ctrls1.refreshEnergy::1         3902689440                       # Energy for refresh commands per rank (pJ)
system.mem_ctrls1.actBackEnergy::0        25315296570                       # Energy for active background per rank (pJ)
system.mem_ctrls1.actBackEnergy::1        24361463700                       # Energy for active background per rank (pJ)
system.mem_ctrls1.preBackEnergy::0        13644765000                       # Energy for precharge background per rank (pJ)
system.mem_ctrls1.preBackEnergy::1        14481460500                       # Energy for precharge background per rank (pJ)
system.mem_ctrls1.totalEnergy::0          44390736090                       # Total energy per rank (pJ)
system.mem_ctrls1.totalEnergy::1          44239599975                       # Total energy per rank (pJ)
system.mem_ctrls1.averagePower::0          742.917037                       # Core power per rank (mW)
system.mem_ctrls1.averagePower::1          740.387645                       # Core power per rank (mW)
system.mem_ctrls2.bytes_read::ruby.dir_cntrl2     13852096                       # Number of bytes read from this memory
system.mem_ctrls2.bytes_read::total          13852096                       # Number of bytes read from this memory
system.mem_ctrls2.bytes_written::ruby.dir_cntrl2      3841920                       # Number of bytes written to this memory
system.mem_ctrls2.bytes_written::total        3841920                       # Number of bytes written to this memory
system.mem_ctrls2.num_reads::ruby.dir_cntrl2       216439                       # Number of read requests responded to by this memory
system.mem_ctrls2.num_reads::total             216439                       # Number of read requests responded to by this memory
system.mem_ctrls2.num_writes::ruby.dir_cntrl2        60030                       # Number of write requests responded to by this memory
system.mem_ctrls2.num_writes::total             60030                       # Number of write requests responded to by this memory
system.mem_ctrls2.bw_read::ruby.dir_cntrl2    231820927                       # Total read bandwidth from this memory (bytes/s)
system.mem_ctrls2.bw_read::total            231820927                       # Total read bandwidth from this memory (bytes/s)
system.mem_ctrls2.bw_write::ruby.dir_cntrl2     64296223                       # Write bandwidth from this memory (bytes/s)
system.mem_ctrls2.bw_write::total            64296223                       # Write bandwidth from this memory (bytes/s)
system.mem_ctrls2.bw_total::ruby.dir_cntrl2    296117150                       # Total bandwidth to/from this memory (bytes/s)
system.mem_ctrls2.bw_total::total           296117150                       # Total bandwidth to/from this memory (bytes/s)
system.mem_ctrls2.readReqs                     216439                       # Number of read requests accepted
system.mem_ctrls2.writeReqs                     60030                       # Number of write requests accepted
system.mem_ctrls2.readBursts                   216439                       # Number of DRAM read bursts, including those serviced by the write queue
system.mem_ctrls2.writeBursts                   60030                       # Number of DRAM write bursts, including those merged in the write queue
system.mem_ctrls2.bytesReadDRAM              13851328                       # Total number of bytes read from DRAM
system.mem_ctrls2.bytesReadWrQ                    768                       # Total number of bytes read from write queue
system.mem_ctrls2.bytesWritten                3841728                       # Total number of bytes written to DRAM
system.mem_ctrls2.bytesReadSys               13852096                       # Total read bytes from the system interface side
system.mem_ctrls2.bytesWrittenSys             3841920                       # Total written bytes from the system interface side
system.mem_ctrls2.servicedByWrQ                    12                       # Number of DRAM read bursts serviced by the write queue
system.mem_ctrls2.mergedWrBursts                    0                       # Number of DRAM write bursts merged with an existing one
system.mem_ctrls2.neitherReadNorWriteReqs            0                       # Number of requests that are neither read nor write
system.mem_ctrls2.perBankRdBursts::0            13292                       # Per bank write bursts
system.mem_ctrls2.perBankRdBursts::1            13834                       # Per bank write bursts
system.mem_ctrls2.perBankRdBursts::2            13509                       # Per bank write bursts
system.mem_ctrls2.perBankRdBursts::3            13918                       # Per bank write bursts
system.mem_ctrls2.perBankRdBursts::4            13547                       # Per bank write bursts
system.mem_ctrls2.perBankRdBursts::5            14108                       # Per bank write bursts
system.mem_ctrls2.perBankRdBursts::6            13494                       # Per bank write bursts
system.mem_ctrls2.perBankRdBursts::7            13499                       # Per bank write bursts
system.mem_ctrls2.perBankRdBursts::8            13396                       # Per bank write bursts
system.mem_ctrls2.perBankRdBursts::9            13711                       # Per bank write bursts
system.mem_ctrls2.perBankRdBursts::10           13425                       # Per bank write bursts
system.mem_ctrls2.perBankRdBursts::11           13701                       # Per bank write bursts
system.mem_ctrls2.perBankRdBursts::12           13205                       # Per bank write bursts
system.mem_ctrls2.perBankRdBursts::13           13068                       # Per bank write bursts
system.mem_ctrls2.perBankRdBursts::14           13299                       # Per bank write bursts
system.mem_ctrls2.perBankRdBursts::15           13421                       # Per bank write bursts
system.mem_ctrls2.perBankWrBursts::0             3680                       # Per bank write bursts
system.mem_ctrls2.perBankWrBursts::1             3777                       # Per bank write bursts
system.mem_ctrls2.perBankWrBursts::2             3762                       # Per bank write bursts
system.mem_ctrls2.perBankWrBursts::3             3992                       # Per bank write bursts
system.mem_ctrls2.perBankWrBursts::4             3770                       # Per bank write bursts
system.mem_ctrls2.perBankWrBursts::5             3914                       # Per bank write bursts
system.mem_ctrls2.perBankWrBursts::6             3812                       # Per bank write bursts
system.mem_ctrls2.perBankWrBursts::7             3786                       # Per bank write bursts
system.mem_ctrls2.perBankWrBursts::8             3665                       # Per bank write bursts
system.mem_ctrls2.perBankWrBursts::9             3906                       # Per bank write bursts
system.mem_ctrls2.perBankWrBursts::10            3673                       # Per bank write bursts
system.mem_ctrls2.perBankWrBursts::11            3608                       # Per bank write bursts
system.mem_ctrls2.perBankWrBursts::12            3575                       # Per bank write bursts
system.mem_ctrls2.perBankWrBursts::13            3589                       # Per bank write bursts
system.mem_ctrls2.perBankWrBursts::14            3799                       # Per bank write bursts
system.mem_ctrls2.perBankWrBursts::15            3719                       # Per bank write bursts
system.mem_ctrls2.numRdRetry                      512                       # Number of times read queue was full causing retry
system.mem_ctrls2.numWrRetry                      237                       # Number of times write queue was full causing retry
system.mem_ctrls2.totGap                  59752728500                       # Total gap between requests
system.mem_ctrls2.readPktSize::0                    0                       # Read request sizes (log2)
system.mem_ctrls2.readPktSize::1                    0                       # Read request sizes (log2)
system.mem_ctrls2.readPktSize::2                    0                       # Read request sizes (log2)
system.mem_ctrls2.readPktSize::3                    0                       # Read request sizes (log2)
system.mem_ctrls2.readPktSize::4                    0                       # Read request sizes (log2)
system.mem_ctrls2.readPktSize::5                    0                       # Read request sizes (log2)
system.mem_ctrls2.readPktSize::6               216439                       # Read request sizes (log2)
system.mem_ctrls2.writePktSize::0                   0                       # Write request sizes (log2)
system.mem_ctrls2.writePktSize::1                   0                       # Write request sizes (log2)
system.mem_ctrls2.writePktSize::2                   0                       # Write request sizes (log2)
system.mem_ctrls2.writePktSize::3                   0                       # Write request sizes (log2)
system.mem_ctrls2.writePktSize::4                   0                       # Write request sizes (log2)
system.mem_ctrls2.writePktSize::5                   0                       # Write request sizes (log2)
system.mem_ctrls2.writePktSize::6               60030                       # Write request sizes (log2)
system.mem_ctrls2.rdQLenPdf::0                 158719                       # What read queue length does an incoming req see
system.mem_ctrls2.rdQLenPdf::1                  42688                       # What read queue length does an incoming req see
system.mem_ctrls2.rdQLenPdf::2                  10875                       # What read queue length does an incoming req see
system.mem_ctrls2.rdQLenPdf::3                   2252                       # What read queue length does an incoming req see
system.mem_ctrls2.rdQLenPdf::4                    476                       # What read queue length does an incoming req see
system.mem_ctrls2.rdQLenPdf::5                    144                       # What read queue length does an incoming req see
system.mem_ctrls2.rdQLenPdf::6                     64                       # What read queue length does an incoming req see
system.mem_ctrls2.rdQLenPdf::7                     45                       # What read queue length does an incoming req see
system.mem_ctrls2.rdQLenPdf::8                     39                       # What read queue length does an incoming req see
system.mem_ctrls2.rdQLenPdf::9                     34                       # What read queue length does an incoming req see
system.mem_ctrls2.rdQLenPdf::10                    34                       # What read queue length does an incoming req see
system.mem_ctrls2.rdQLenPdf::11                    39                       # What read queue length does an incoming req see
system.mem_ctrls2.rdQLenPdf::12                    41                       # What read queue length does an incoming req see
system.mem_ctrls2.rdQLenPdf::13                    33                       # What read queue length does an incoming req see
system.mem_ctrls2.rdQLenPdf::14                    30                       # What read queue length does an incoming req see
system.mem_ctrls2.rdQLenPdf::15                    33                       # What read queue length does an incoming req see
system.mem_ctrls2.rdQLenPdf::16                    34                       # What read queue length does an incoming req see
system.mem_ctrls2.rdQLenPdf::17                    24                       # What read queue length does an incoming req see
system.mem_ctrls2.rdQLenPdf::18                    23                       # What read queue length does an incoming req see
system.mem_ctrls2.rdQLenPdf::19                    22                       # What read queue length does an incoming req see
system.mem_ctrls2.rdQLenPdf::20                    21                       # What read queue length does an incoming req see
system.mem_ctrls2.rdQLenPdf::21                    25                       # What read queue length does an incoming req see
system.mem_ctrls2.rdQLenPdf::22                    27                       # What read queue length does an incoming req see
system.mem_ctrls2.rdQLenPdf::23                    21                       # What read queue length does an incoming req see
system.mem_ctrls2.rdQLenPdf::24                    20                       # What read queue length does an incoming req see
system.mem_ctrls2.rdQLenPdf::25                    21                       # What read queue length does an incoming req see
system.mem_ctrls2.rdQLenPdf::26                    21                       # What read queue length does an incoming req see
system.mem_ctrls2.rdQLenPdf::27                    13                       # What read queue length does an incoming req see
system.mem_ctrls2.rdQLenPdf::28                    15                       # What read queue length does an incoming req see
system.mem_ctrls2.rdQLenPdf::29                    14                       # What read queue length does an incoming req see
system.mem_ctrls2.rdQLenPdf::30                    17                       # What read queue length does an incoming req see
system.mem_ctrls2.rdQLenPdf::31                   563                       # What read queue length does an incoming req see
system.mem_ctrls2.wrQLenPdf::0                  11717                       # What write queue length does an incoming req see
system.mem_ctrls2.wrQLenPdf::1                  11878                       # What write queue length does an incoming req see
system.mem_ctrls2.wrQLenPdf::2                  11872                       # What write queue length does an incoming req see
system.mem_ctrls2.wrQLenPdf::3                  11860                       # What write queue length does an incoming req see
system.mem_ctrls2.wrQLenPdf::4                  11855                       # What write queue length does an incoming req see
system.mem_ctrls2.wrQLenPdf::5                    225                       # What write queue length does an incoming req see
system.mem_ctrls2.wrQLenPdf::6                    168                       # What write queue length does an incoming req see
system.mem_ctrls2.wrQLenPdf::7                    455                       # What write queue length does an incoming req see
system.mem_ctrls2.bytesPerActivate::samples        80866                       # Bytes accessed per row activation
system.mem_ctrls2.bytesPerActivate::mean   218.789998                       # Bytes accessed per row activation
system.mem_ctrls2.bytesPerActivate::gmean   140.108839                       # Bytes accessed per row activation
system.mem_ctrls2.bytesPerActivate::stdev   245.999548                       # Bytes accessed per row activation
system.mem_ctrls2.bytesPerActivate::0-127        37971     46.96%     46.96% # Bytes accessed per row activation
system.mem_ctrls2.bytesPerActivate::128-255        16755     20.72%     67.67% # Bytes accessed per row activation
system.mem_ctrls2.bytesPerActivate::256-383        14700     18.18%     85.85% # Bytes accessed per row activation
system.mem_ctrls2.bytesPerActivate::384-511         2612      3.23%     89.08% # Bytes accessed per row activation
system.mem_ctrls2.bytesPerActivate::512-639         1786      2.21%     91.29% # Bytes accessed per row activation
system.mem_ctrls2.bytesPerActivate::640-767         1297      1.60%     92.90% # Bytes accessed per row activation
system.mem_ctrls2.bytesPerActivate::768-895         1103      1.36%     94.26% # Bytes accessed per row activation
system.mem_ctrls2.bytesPerActivate::896-1023          990      1.22%     95.48% # Bytes accessed per row activation
system.mem_ctrls2.bytesPerActivate::1024-1151         3652      4.52%    100.00% # Bytes accessed per row activation
system.mem_ctrls2.bytesPerActivate::total        80866                       # Bytes accessed per row activation
system.mem_ctrls2.rdPerTurnAround::samples        11751                       # Reads before turning the bus around for writes
system.mem_ctrls2.rdPerTurnAround::mean     18.346098                       # Reads before turning the bus around for writes
system.mem_ctrls2.rdPerTurnAround::stdev    75.669600                       # Reads before turning the bus around for writes
system.mem_ctrls2.rdPerTurnAround::0-127        11386     96.89%     96.89% # Reads before turning the bus around for writes
system.mem_ctrls2.rdPerTurnAround::128-255          177      1.51%     98.40% # Reads before turning the bus around for writes
system.mem_ctrls2.rdPerTurnAround::256-383           99      0.84%     99.24% # Reads before turning the bus around for writes
system.mem_ctrls2.rdPerTurnAround::384-511           42      0.36%     99.60% # Reads before turning the bus around for writes
system.mem_ctrls2.rdPerTurnAround::512-639           19      0.16%     99.76% # Reads before turning the bus around for writes
system.mem_ctrls2.rdPerTurnAround::640-767           14      0.12%     99.88% # Reads before turning the bus around for writes
system.mem_ctrls2.rdPerTurnAround::768-895            4      0.03%     99.91% # Reads before turning the bus around for writes
system.mem_ctrls2.rdPerTurnAround::1024-1151            2      0.02%     99.93% # Reads before turning the bus around for writes
system.mem_ctrls2.rdPerTurnAround::1152-1279            2      0.02%     99.95% # Reads before turning the bus around for writes
system.mem_ctrls2.rdPerTurnAround::1408-1535            1      0.01%     99.96% # Reads before turning the bus around for writes
system.mem_ctrls2.rdPerTurnAround::1536-1663            1      0.01%     99.97% # Reads before turning the bus around for writes
system.mem_ctrls2.rdPerTurnAround::1664-1791            1      0.01%     99.97% # Reads before turning the bus around for writes
system.mem_ctrls2.rdPerTurnAround::1792-1919            1      0.01%     99.98% # Reads before turning the bus around for writes
system.mem_ctrls2.rdPerTurnAround::1920-2047            1      0.01%     99.99% # Reads before turning the bus around for writes
system.mem_ctrls2.rdPerTurnAround::2816-2943            1      0.01%    100.00% # Reads before turning the bus around for writes
system.mem_ctrls2.rdPerTurnAround::total        11751                       # Reads before turning the bus around for writes
system.mem_ctrls2.wrPerTurnAround::samples        11751                       # Writes before turning the bus around for reads
system.mem_ctrls2.wrPerTurnAround::mean      5.108246                       # Writes before turning the bus around for reads
system.mem_ctrls2.wrPerTurnAround::gmean     5.074823                       # Writes before turning the bus around for reads
system.mem_ctrls2.wrPerTurnAround::stdev     0.836320                       # Writes before turning the bus around for reads
system.mem_ctrls2.wrPerTurnAround::4-7          11656     99.19%     99.19% # Writes before turning the bus around for reads
system.mem_ctrls2.wrPerTurnAround::8-11            30      0.26%     99.45% # Writes before turning the bus around for reads
system.mem_ctrls2.wrPerTurnAround::12-15           16      0.14%     99.58% # Writes before turning the bus around for reads
system.mem_ctrls2.wrPerTurnAround::16-19           49      0.42%    100.00% # Writes before turning the bus around for reads
system.mem_ctrls2.wrPerTurnAround::total        11751                       # Writes before turning the bus around for reads
system.mem_ctrls2.totQLat                  2827139141                       # Total ticks spent queuing
system.mem_ctrls2.totMemAccLat             6885145391                       # Total ticks spent from burst creation until serviced by the DRAM
system.mem_ctrls2.totBusLat                1082135000                       # Total ticks spent in databus transfers
system.mem_ctrls2.avgQLat                    13062.78                       # Average queueing delay per DRAM burst
system.mem_ctrls2.avgBusLat                   5000.00                       # Average bus latency per DRAM burst
system.mem_ctrls2.avgMemAccLat               31812.78                       # Average memory access latency per DRAM burst
system.mem_ctrls2.avgRdBW                      231.81                       # Average DRAM read bandwidth in MiByte/s
system.mem_ctrls2.avgWrBW                       64.29                       # Average achieved write bandwidth in MiByte/s
system.mem_ctrls2.avgRdBWSys                   231.82                       # Average system read bandwidth in MiByte/s
system.mem_ctrls2.avgWrBWSys                    64.30                       # Average system write bandwidth in MiByte/s
system.mem_ctrls2.peakBW                     12800.00                       # Theoretical peak bandwidth in MiByte/s
system.mem_ctrls2.busUtil                        2.31                       # Data bus utilization in percentage
system.mem_ctrls2.busUtilRead                    1.81                       # Data bus utilization in percentage for reads
system.mem_ctrls2.busUtilWrite                   0.50                       # Data bus utilization in percentage for writes
system.mem_ctrls2.avgRdQLen                      1.10                       # Average read queue length when enqueuing
system.mem_ctrls2.avgWrQLen                      2.98                       # Average write queue length when enqueuing
system.mem_ctrls2.readRowHits                  156823                       # Number of row buffer hits during reads
system.mem_ctrls2.writeRowHits                  38760                       # Number of row buffer hits during writes
system.mem_ctrls2.readRowHitRate                72.46                       # Row buffer hit rate for reads
system.mem_ctrls2.writeRowHitRate               64.57                       # Row buffer hit rate for writes
system.mem_ctrls2.avgGap                    216128.13                       # Average gap between requests
system.mem_ctrls2.pageHitRate                   70.75                       # Row buffer hit rate, read and write combined
system.mem_ctrls2.memoryStateTime::IDLE   11128303250                       # Time in different power states
system.mem_ctrls2.memoryStateTime::REF     1995240000                       # Time in different power states
system.mem_ctrls2.memoryStateTime::PRE_PDN            0                       # Time in different power states
system.mem_ctrls2.memoryStateTime::ACT    46628413000                       # Time in different power states
system.mem_ctrls2.memoryStateTime::ACT_PDN            0                       # Time in different power states
system.mem_ctrls2.actEnergy::0              309854160                       # Energy for activate commands per rank (pJ)
system.mem_ctrls2.actEnergy::1              301485240                       # Energy for activate commands per rank (pJ)
system.mem_ctrls2.preEnergy::0              169067250                       # Energy for precharge commands per rank (pJ)
system.mem_ctrls2.preEnergy::1              164500875                       # Energy for precharge commands per rank (pJ)
system.mem_ctrls2.readEnergy::0             851752200                       # Energy for read commands per rank (pJ)
system.mem_ctrls2.readEnergy::1             836323800                       # Energy for read commands per rank (pJ)
system.mem_ctrls2.writeEnergy::0            197594640                       # Energy for write commands per rank (pJ)
system.mem_ctrls2.writeEnergy::1            191380320                       # Energy for write commands per rank (pJ)
system.mem_ctrls2.refreshEnergy::0         3902689440                       # Energy for refresh commands per rank (pJ)
system.mem_ctrls2.refreshEnergy::1         3902689440                       # Energy for refresh commands per rank (pJ)
system.mem_ctrls2.actBackEnergy::0        25289284905                       # Energy for active background per rank (pJ)
system.mem_ctrls2.actBackEnergy::1        24500832120                       # Energy for active background per rank (pJ)
system.mem_ctrls2.preBackEnergy::0        13667582250                       # Energy for precharge background per rank (pJ)
system.mem_ctrls2.preBackEnergy::1        14359207500                       # Energy for precharge background per rank (pJ)
system.mem_ctrls2.totalEnergy::0          44387824845                       # Total energy per rank (pJ)
system.mem_ctrls2.totalEnergy::1          44256419295                       # Total energy per rank (pJ)
system.mem_ctrls2.averagePower::0          742.868315                       # Core power per rank (mW)
system.mem_ctrls2.averagePower::1          740.669130                       # Core power per rank (mW)
system.mem_ctrls3.bytes_read::ruby.dir_cntrl3     13837056                       # Number of bytes read from this memory
system.mem_ctrls3.bytes_read::total          13837056                       # Number of bytes read from this memory
system.mem_ctrls3.bytes_written::ruby.dir_cntrl3      3838464                       # Number of bytes written to this memory
system.mem_ctrls3.bytes_written::total        3838464                       # Number of bytes written to this memory
system.mem_ctrls3.num_reads::ruby.dir_cntrl3       216204                       # Number of read requests responded to by this memory
system.mem_ctrls3.num_reads::total             216204                       # Number of read requests responded to by this memory
system.mem_ctrls3.num_writes::ruby.dir_cntrl3        59976                       # Number of write requests responded to by this memory
system.mem_ctrls3.num_writes::total             59976                       # Number of write requests responded to by this memory
system.mem_ctrls3.bw_read::ruby.dir_cntrl3    231569226                       # Total read bandwidth from this memory (bytes/s)
system.mem_ctrls3.bw_read::total            231569226                       # Total read bandwidth from this memory (bytes/s)
system.mem_ctrls3.bw_write::ruby.dir_cntrl3     64238386                       # Write bandwidth from this memory (bytes/s)
system.mem_ctrls3.bw_write::total            64238386                       # Write bandwidth from this memory (bytes/s)
system.mem_ctrls3.bw_total::ruby.dir_cntrl3    295807612                       # Total bandwidth to/from this memory (bytes/s)
system.mem_ctrls3.bw_total::total           295807612                       # Total bandwidth to/from this memory (bytes/s)
system.mem_ctrls3.readReqs                     216205                       # Number of read requests accepted
system.mem_ctrls3.writeReqs                     59976                       # Number of write requests accepted
system.mem_ctrls3.readBursts                   216205                       # Number of DRAM read bursts, including those serviced by the write queue
system.mem_ctrls3.writeBursts                   59976                       # Number of DRAM write bursts, including those merged in the write queue
system.mem_ctrls3.bytesReadDRAM              13836416                       # Total number of bytes read from DRAM
system.mem_ctrls3.bytesReadWrQ                    704                       # Total number of bytes read from write queue
system.mem_ctrls3.bytesWritten                3838272                       # Total number of bytes written to DRAM
system.mem_ctrls3.bytesReadSys               13837120                       # Total read bytes from the system interface side
system.mem_ctrls3.bytesWrittenSys             3838464                       # Total written bytes from the system interface side
system.mem_ctrls3.servicedByWrQ                    11                       # Number of DRAM read bursts serviced by the write queue
system.mem_ctrls3.mergedWrBursts                    0                       # Number of DRAM write bursts merged with an existing one
system.mem_ctrls3.neitherReadNorWriteReqs            0                       # Number of requests that are neither read nor write
system.mem_ctrls3.perBankRdBursts::0            13270                       # Per bank write bursts
system.mem_ctrls3.perBankRdBursts::1            13822                       # Per bank write bursts
system.mem_ctrls3.perBankRdBursts::2            13450                       # Per bank write bursts
system.mem_ctrls3.perBankRdBursts::3            13898                       # Per bank write bursts
system.mem_ctrls3.perBankRdBursts::4            13490                       # Per bank write bursts
system.mem_ctrls3.perBankRdBursts::5            14084                       # Per bank write bursts
system.mem_ctrls3.perBankRdBursts::6            13511                       # Per bank write bursts
system.mem_ctrls3.perBankRdBursts::7            13492                       # Per bank write bursts
system.mem_ctrls3.perBankRdBursts::8            13398                       # Per bank write bursts
system.mem_ctrls3.perBankRdBursts::9            13703                       # Per bank write bursts
system.mem_ctrls3.perBankRdBursts::10           13442                       # Per bank write bursts
system.mem_ctrls3.perBankRdBursts::11           13659                       # Per bank write bursts
system.mem_ctrls3.perBankRdBursts::12           13200                       # Per bank write bursts
system.mem_ctrls3.perBankRdBursts::13           13061                       # Per bank write bursts
system.mem_ctrls3.perBankRdBursts::14           13312                       # Per bank write bursts
system.mem_ctrls3.perBankRdBursts::15           13402                       # Per bank write bursts
system.mem_ctrls3.perBankWrBursts::0             3684                       # Per bank write bursts
system.mem_ctrls3.perBankWrBursts::1             3769                       # Per bank write bursts
system.mem_ctrls3.perBankWrBursts::2             3752                       # Per bank write bursts
system.mem_ctrls3.perBankWrBursts::3             3975                       # Per bank write bursts
system.mem_ctrls3.perBankWrBursts::4             3768                       # Per bank write bursts
system.mem_ctrls3.perBankWrBursts::5             3909                       # Per bank write bursts
system.mem_ctrls3.perBankWrBursts::6             3808                       # Per bank write bursts
system.mem_ctrls3.perBankWrBursts::7             3773                       # Per bank write bursts
system.mem_ctrls3.perBankWrBursts::8             3662                       # Per bank write bursts
system.mem_ctrls3.perBankWrBursts::9             3908                       # Per bank write bursts
system.mem_ctrls3.perBankWrBursts::10            3672                       # Per bank write bursts
system.mem_ctrls3.perBankWrBursts::11            3622                       # Per bank write bursts
system.mem_ctrls3.perBankWrBursts::12            3573                       # Per bank write bursts
system.mem_ctrls3.perBankWrBursts::13            3595                       # Per bank write bursts
system.mem_ctrls3.perBankWrBursts::14            3795                       # Per bank write bursts
system.mem_ctrls3.perBankWrBursts::15            3708                       # Per bank write bursts
system.mem_ctrls3.numRdRetry                      461                       # Number of times read queue was full causing retry
system.mem_ctrls3.numWrRetry                      258                       # Number of times write queue was full causing retry
system.mem_ctrls3.totGap                  59752686500                       # Total gap between requests
system.mem_ctrls3.readPktSize::0                    0                       # Read request sizes (log2)
system.mem_ctrls3.readPktSize::1                    0                       # Read request sizes (log2)
system.mem_ctrls3.readPktSize::2                    0                       # Read request sizes (log2)
system.mem_ctrls3.readPktSize::3                    0                       # Read request sizes (log2)
system.mem_ctrls3.readPktSize::4                    0                       # Read request sizes (log2)
system.mem_ctrls3.readPktSize::5                    0                       # Read request sizes (log2)
system.mem_ctrls3.readPktSize::6               216205                       # Read request sizes (log2)
system.mem_ctrls3.writePktSize::0                   0                       # Write request sizes (log2)
[...]
system.ruby.L2Cache_Controller.IS.Mem_Data::total        13544                      
system.ruby.L2Cache_Controller.IM.Mem_Data |        6008      3.16%      3.16% |        5933      3.12%      6.28% |        5941      3.12%      9.40% |        5950      3.13%     12.53% |        5948      3.13%     15.66% |        5946      3.13%     18.78% |        5940      3.12%     21.91% |        5927      3.12%     25.02% |        5949      3.13%     28.15% |        5944      3.13%     31.28% |        5929      3.12%     34.39% |        5949      3.13%     37.52% |        5939      3.12%     40.64% |        5934      3.12%     43.76% |        5932      3.12%     46.88% |        5932      3.12%     50.00% |        5946      3.13%     53.13% |        5946      3.13%     56.25% |        5947      3.13%     59.38% |        5937      3.12%     62.50% |        5943      3.12%     65.62% |        5952      3.13%     68.75% |        5932      3.12%     71.87% |        5940      3.12%     75.00% |        5947      3.13%     78.12% |        5943      3.12%     81.25% |        5953      3.13%     84.38% |        5943      3.12%     87.50% |        5941      3.12%     90.63% |        5946      3.13%     93.75% |        5954      3.13%     96.88% |        5931      3.12%    100.00%
system.ruby.L2Cache_Controller.IM.Mem_Data::total       190202                      
system.ruby.L2Cache_Controller.SS_MB.L1_UPGRADE |           1    100.00%    100.00% |           0      0.00%    100.00% |           0      0.00%    100.00% |           0      0.00%    100.00% |           0      0.00%    100.00% |           0      0.00%    100.00% |           0      0.00%    100.00% |           0      0.00%    100.00% |           0      0.00%    100.00% |           0      0.00%    100.00% |           0      0.00%    100.00% |           0      0.00%    100.00% |           0      0.00%    100.00% |           0      0.00%    100.00% |           0      0.00%    100.00% |           0      0.00%    100.00% |           0      0.00%    100.00% |           0      0.00%    100.00% |           0      0.00%    100.00% |           0      0.00%    100.00% |           0      0.00%    100.00% |           0      0.00%    100.00% |           0      0.00%    100.00% |           0      0.00%    100.00% |           0      0.00%    100.00% |           0      0.00%    100.00% |           0      0.00%    100.00% |           0      0.00%    100.00% |           0      0.00%    100.00% |           0      0.00%    100.00% |           0      0.00%    100.00% |           0      0.00%    100.00%
system.ruby.L2Cache_Controller.SS_MB.L1_UPGRADE::total            1                      
system.ruby.L2Cache_Controller.SS_MB.Exclusive_Unblock |         213     81.30%     81.30% |           6      2.29%     83.59% |           3      1.15%     84.73% |           6      2.29%     87.02% |           0      0.00%     87.02% |           1      0.38%     87.40% |           1      0.38%     87.79% |           0      0.00%     87.79% |           0      0.00%     87.79% |           1      0.38%     88.17% |           0      0.00%     88.17% |           0      0.00%     88.17% |           5      1.91%     90.08% |           0      0.00%     90.08% |           2      0.76%     90.84% |           1      0.38%     91.22% |           0      0.00%     91.22% |           0      0.00%     91.22% |          10      3.82%     95.04% |           2      0.76%     95.80% |           0      0.00%     95.80% |           0      0.00%     95.80% |           0      0.00%     95.80% |           0      0.00%     95.80% |           1      0.38%     96.18% |           0      0.00%     96.18% |           2      0.76%     96.95% |           1      0.38%     97.33% |           4      1.53%     98.85% |           1      0.38%     99.24% |           1      0.38%     99.62% |           1      0.38%    100.00%
system.ruby.L2Cache_Controller.SS_MB.Exclusive_Unblock::total          262                      
system.ruby.L2Cache_Controller.MT_MB.Exclusive_Unblock |       77634      7.09%      7.09% |       33387      3.05%     10.14% |       32686      2.99%     13.12% |       32852      3.00%     16.12% |       33106      3.02%     19.15% |       32031      2.93%     22.07% |       31957      2.92%     24.99% |       31673      2.89%     27.88% |       33956      3.10%     30.99% |       32355      2.95%     33.94% |       34303      3.13%     37.07% |       33124      3.03%     40.10% |       32695      2.99%     43.08% |       31745      2.90%     45.98% |       31778      2.90%     48.89% |       31669      2.89%     51.78% |       34274      3.13%     54.91% |       32114      2.93%     57.84% |       32965      3.01%     60.85% |       32541      2.97%     63.82% |       33034      3.02%     66.84% |       32476      2.97%     69.81% |       33015      3.02%     72.82% |       32009      2.92%     75.74% |       33648      3.07%     78.82% |       32343      2.95%     81.77% |       32844      3.00%     84.77% |       31819      2.91%     87.68% |       33166      3.03%     90.71% |       31907      2.91%     93.62% |       34283      3.13%     96.75% |       35575      3.25%    100.00%
system.ruby.L2Cache_Controller.MT_MB.Exclusive_Unblock::total      1094964                      
system.ruby.L2Cache_Controller.MT_IIB.L1_GETS |           1      6.67%      6.67% |           5     33.33%     40.00% |           1      6.67%     46.67% |           0      0.00%     46.67% |           0      0.00%     46.67% |           0      0.00%     46.67% |           0      0.00%     46.67% |           0      0.00%     46.67% |           0      0.00%     46.67% |           0      0.00%     46.67% |           0      0.00%     46.67% |           0      0.00%     46.67% |           0      0.00%     46.67% |           0      0.00%     46.67% |           0      0.00%     46.67% |           0      0.00%     46.67% |           0      0.00%     46.67% |           4     26.67%     73.33% |           4     26.67%    100.00% |           0      0.00%    100.00% |           0      0.00%    100.00% |           0      0.00%    100.00% |           0      0.00%    100.00% |           0      0.00%    100.00% |           0      0.00%    100.00% |           0      0.00%    100.00% |           0      0.00%    100.00% |           0      0.00%    100.00% |           0      0.00%    100.00% |           0      0.00%    100.00% |           0      0.00%    100.00% |           0      0.00%    100.00%
system.ruby.L2Cache_Controller.MT_IIB.L1_GETS::total           15                      
system.ruby.L2Cache_Controller.MT_IIB.WB_Data |         176      7.60%      7.60% |          70      3.02%     10.62% |          69      2.98%     13.60% |          64      2.76%     16.36% |          69      2.98%     19.34% |          69      2.98%     22.32% |          69      2.98%     25.30% |          69      2.98%     28.28% |          69      2.98%     31.26% |          69      2.98%     34.24% |          68      2.94%     37.18% |          67      2.89%     40.07% |          73      3.15%     43.22% |          69      2.98%     46.20% |          69      2.98%     49.18% |          69      2.98%     52.16% |          69      2.98%     55.14% |          69      2.98%     58.12% |          70      3.02%     61.14% |          68      2.94%     64.08% |          69      2.98%     67.06% |          69      2.98%     70.03% |          71      3.07%     73.10% |          69      2.98%     76.08% |          69      2.98%     79.06% |          69      2.98%     82.04% |          69      2.98%     85.02% |          69      2.98%     88.00% |          71      3.07%     91.06% |          69      2.98%     94.04% |          69      2.98%     97.02% |          69      2.98%    100.00%
system.ruby.L2Cache_Controller.MT_IIB.WB_Data::total         2316                      
system.ruby.L2Cache_Controller.MT_IIB.WB_Data_clean |         604     96.79%     96.79% |           4      0.64%     97.44% |           3      0.48%     97.92% |           3      0.48%     98.40% |           0      0.00%     98.40% |           0      0.00%     98.40% |           0      0.00%     98.40% |           0      0.00%     98.40% |           0      0.00%     98.40% |           0      0.00%     98.40% |           0      0.00%     98.40% |           0      0.00%     98.40% |           0      0.00%     98.40% |           0      0.00%     98.40% |           1      0.16%     98.56% |           0      0.00%     98.56% |           1      0.16%     98.72% |           3      0.48%     99.20% |           3      0.48%     99.68% |           2      0.32%    100.00% |           0      0.00%    100.00% |           0      0.00%    100.00% |           0      0.00%    100.00% |           0      0.00%    100.00% |           0      0.00%    100.00% |           0      0.00%    100.00% |           0      0.00%    100.00% |           0      0.00%    100.00% |           0      0.00%    100.00% |           0      0.00%    100.00% |           0      0.00%    100.00% |           0      0.00%    100.00%
system.ruby.L2Cache_Controller.MT_IIB.WB_Data_clean::total          624                      
system.ruby.L2Cache_Controller.MT_IIB.Unblock |           0      0.00%      0.00% |           1      8.33%      8.33% |           0      0.00%      8.33% |           5     41.67%     50.00% |           0      0.00%     50.00% |           0      0.00%     50.00% |           0      0.00%     50.00% |           0      0.00%     50.00% |           0      0.00%     50.00% |           0      0.00%     50.00% |           1      8.33%     58.33% |           2     16.67%     75.00% |           0      0.00%     75.00% |           0      0.00%     75.00% |           0      0.00%     75.00% |           0      0.00%     75.00% |           0      0.00%     75.00% |           0      0.00%     75.00% |           0      0.00%     75.00% |           2     16.67%     91.67% |           0      0.00%     91.67% |           0      0.00%     91.67% |           0      0.00%     91.67% |           0      0.00%     91.67% |           0      0.00%     91.67% |           1      8.33%    100.00% |           0      0.00%    100.00% |           0      0.00%    100.00% |           0      0.00%    100.00% |           0      0.00%    100.00% |           0      0.00%    100.00% |           0      0.00%    100.00%
system.ruby.L2Cache_Controller.MT_IIB.Unblock::total           12                      
system.ruby.L2Cache_Controller.MT_IB.WB_Data |           0      0.00%      0.00% |           1      8.33%      8.33% |           0      0.00%      8.33% |           5     41.67%     50.00% |           0      0.00%     50.00% |           0      0.00%     50.00% |           0      0.00%     50.00% |           0      0.00%     50.00% |           0      0.00%     50.00% |           0      0.00%     50.00% |           1      8.33%     58.33% |           2     16.67%     75.00% |           0      0.00%     75.00% |           0      0.00%     75.00% |           0      0.00%     75.00% |           0      0.00%     75.00% |           0      0.00%     75.00% |           0      0.00%     75.00% |           0      0.00%     75.00% |           2     16.67%     91.67% |           0      0.00%     91.67% |           0      0.00%     91.67% |           0      0.00%     91.67% |           0      0.00%     91.67% |           0      0.00%     91.67% |           1      8.33%    100.00% |           0      0.00%    100.00% |           0      0.00%    100.00% |           0      0.00%    100.00% |           0      0.00%    100.00% |           0      0.00%    100.00% |           0      0.00%    100.00%
system.ruby.L2Cache_Controller.MT_IB.WB_Data::total           12                      
system.ruby.L2Cache_Controller.MT_SB.L1_GETS |           0      0.00%      0.00% |           1     33.33%     33.33% |           1     33.33%     66.67% |           1     33.33%    100.00% |           0      0.00%    100.00% |           0      0.00%    100.00% |           0      0.00%    100.00% |           0      0.00%    100.00% |           0      0.00%    100.00% |           0      0.00%    100.00% |           0      0.00%    100.00% |           0      0.00%    100.00% |           0      0.00%    100.00% |           0      0.00%    100.00% |           0      0.00%    100.00% |           0      0.00%    100.00% |           0      0.00%    100.00% |           0      0.00%    100.00% |           0      0.00%    100.00% |           0      0.00%    100.00% |           0      0.00%    100.00% |           0      0.00%    100.00% |           0      0.00%    100.00% |           0      0.00%    100.00% |           0      0.00%    100.00% |           0      0.00%    100.00% |           0      0.00%    100.00% |           0      0.00%    100.00% |           0      0.00%    100.00% |           0      0.00%    100.00% |           0      0.00%    100.00% |           0      0.00%    100.00%
system.ruby.L2Cache_Controller.MT_SB.L1_GETS::total            3                      
system.ruby.L2Cache_Controller.MT_SB.Unblock |         780     26.53%     26.53% |          74      2.52%     29.05% |          72      2.45%     31.50% |          67      2.28%     33.78% |          69      2.35%     36.12% |          69      2.35%     38.47% |          69      2.35%     40.82% |          69      2.35%     43.16% |          69      2.35%     45.51% |          69      2.35%     47.86% |          68      2.31%     50.17% |          67      2.28%     52.45% |          73      2.48%     54.93% |          69      2.35%     57.28% |          70      2.38%     59.66% |          69      2.35%     62.01% |          70      2.38%     64.39% |          72      2.45%     66.84% |          73      2.48%     69.32% |          70      2.38%     71.70% |          69      2.35%     74.05% |          69      2.35%     76.39% |          71      2.41%     78.81% |          69      2.35%     81.16% |          69      2.35%     83.50% |          69      2.35%     85.85% |          69      2.35%     88.20% |          69      2.35%     90.54% |          71      2.41%     92.96% |          69      2.35%     95.31% |          69      2.35%     97.65% |          69      2.35%    100.00%
system.ruby.L2Cache_Controller.MT_SB.Unblock::total         2940                      
system.ruby.SimicsNetworkPortInterface_Controller.MessageSend |       76263      4.27%      4.27% |      892051     50.00%     54.27% |      108002      6.05%     60.33% |      103497      5.80%     66.13% |      101388      5.68%     71.81% |      102736      5.76%     77.57% |      101314      5.68%     83.25% |      103450      5.80%     89.05% |       97334      5.46%     94.50% |       98067      5.50%    100.00% |           0      0.00%    100.00% |           0      0.00%    100.00% |           0      0.00%    100.00% |           0      0.00%    100.00% |           0      0.00%    100.00% |           0      0.00%    100.00% |           0      0.00%    100.00% |           0      0.00%    100.00% |           0      0.00%    100.00% |           0      0.00%    100.00% |           0      0.00%    100.00% |           0      0.00%    100.00% |           0      0.00%    100.00% |           0      0.00%    100.00% |           0      0.00%    100.00% |           0      0.00%    100.00% |           0      0.00%    100.00% |           0      0.00%    100.00% |           0      0.00%    100.00% |           0      0.00%    100.00% |           0      0.00%    100.00% |           0      0.00%    100.00%
system.ruby.SimicsNetworkPortInterface_Controller.MessageSend::total      1784102                      
system.ruby.SimicsNetworkPortInterface_Controller.MessageRecv |       76263      4.27%      4.27% |      892051     50.00%     54.27% |      108002      6.05%     60.33% |      103497      5.80%     66.13% |      101388      5.68%     71.81% |      102736      5.76%     77.57% |      101314      5.68%     83.25% |      103450      5.80%     89.05% |       97334      5.46%     94.50% |       98067      5.50%    100.00% |           0      0.00%    100.00% |           0      0.00%    100.00% |           0      0.00%    100.00% |           0      0.00%    100.00% |           0      0.00%    100.00% |           0      0.00%    100.00% |           0      0.00%    100.00% |           0      0.00%    100.00% |           0      0.00%    100.00% |           0      0.00%    100.00% |           0      0.00%    100.00% |           0      0.00%    100.00% |           0      0.00%    100.00% |           0      0.00%    100.00% |           0      0.00%    100.00% |           0      0.00%    100.00% |           0      0.00%    100.00% |           0      0.00%    100.00% |           0      0.00%    100.00% |           0      0.00%    100.00% |           0      0.00%    100.00% |           0      0.00%    100.00%
system.ruby.SimicsNetworkPortInterface_Controller.MessageRecv::total      1784102                      
system.ruby.SimicsNetworkPortInterface_Controller.A.MessageSend |       76263      4.27%      4.27% |      892051     50.00%     54.27% |      108002      6.05%     60.33% |      103497      5.80%     66.13% |      101388      5.68%     71.81% |      102736      5.76%     77.57% |      101314      5.68%     83.25% |      103450      5.80%     89.05% |       97334      5.46%     94.50% |       98067      5.50%    100.00% |           0      0.00%    100.00% |           0      0.00%    100.00% |           0      0.00%    100.00% |           0      0.00%    100.00% |           0      0.00%    100.00% |           0      0.00%    100.00% |           0      0.00%    100.00% |           0      0.00%    100.00% |           0      0.00%    100.00% |           0      0.00%    100.00% |           0      0.00%    100.00% |           0      0.00%    100.00% |           0      0.00%    100.00% |           0      0.00%    100.00% |           0      0.00%    100.00% |           0      0.00%    100.00% |           0      0.00%    100.00% |           0      0.00%    100.00% |           0      0.00%    100.00% |           0      0.00%    100.00% |           0      0.00%    100.00% |           0      0.00%    100.00%
system.ruby.SimicsNetworkPortInterface_Controller.A.MessageSend::total      1784102                      
system.ruby.SimicsNetworkPortInterface_Controller.A.MessageRecv |       76263      4.27%      4.27% |      892051     50.00%     54.27% |      108002      6.05%     60.33% |      103497      5.80%     66.13% |      101388      5.68%     71.81% |      102736      5.76%     77.57% |      101314      5.68%     83.25% |      103450      5.80%     89.05% |       97334      5.46%     94.50% |       98067      5.50%    100.00% |           0      0.00%    100.00% |           0      0.00%    100.00% |           0      0.00%    100.00% |           0      0.00%    100.00% |           0      0.00%    100.00% |           0      0.00%    100.00% |           0      0.00%    100.00% |           0      0.00%    100.00% |           0      0.00%    100.00% |           0      0.00%    100.00% |           0      0.00%    100.00% |           0      0.00%    100.00% |           0      0.00%    100.00% |           0      0.00%    100.00% |           0      0.00%    100.00% |           0      0.00%    100.00% |           0      0.00%    100.00% |           0      0.00%    100.00% |           0      0.00%    100.00% |           0      0.00%    100.00% |           0      0.00%    100.00% |           0      0.00%    100.00%
system.ruby.SimicsNetworkPortInterface_Controller.A.MessageRecv::total      1784102                      
system.switch_cpus.kern.inst.arm                    0                       # number of arm instructions executed
system.switch_cpus.kern.inst.quiesce                0                       # number of quiesce instructions executed

---------- End Simulation Statistics   ----------
