
---------- Begin Simulation Statistics ----------
sim_seconds                                  0.057185                       # Number of seconds simulated
sim_ticks                                 57184810500                       # Number of ticks simulated
final_tick                               5233352889000                       # Number of ticks from beginning of simulation (restored from checkpoints and never reset)
sim_freq                                 1000000000000                       # Frequency of simulated ticks
host_inst_rate                                  31659                       # Simulator instruction rate (inst/s)
host_op_rate                                    55964                       # Simulator op (including micro ops) rate (op/s)
host_tick_rate                               77989576                       # Simulator tick rate (ticks/s)
host_mem_usage                                3558884                       # Number of bytes of host memory used
host_seconds                                   733.24                       # Real time elapsed on the host
sim_insts                                    23213314                       # Number of instructions simulated
sim_ops                                      41034825                       # Number of ops (including micro ops) simulated
system.voltage_domain.voltage                       1                       # Voltage in Volts
system.clk_domain.clock                           500                       # Clock period in ticks
system.mem_ctrls0.bytes_read::ruby.dir_cntrl0     12624320                       # Number of bytes read from this memory
system.mem_ctrls0.bytes_read::total          12624320                       # Number of bytes read from this memory
system.mem_ctrls0.bytes_written::ruby.dir_cntrl0      8055232                       # Number of bytes written to this memory
system.mem_ctrls0.bytes_written::total        8055232                       # Number of bytes written to this memory
system.mem_ctrls0.num_reads::ruby.dir_cntrl0       197255                       # Number of read requests responded to by this memory
system.mem_ctrls0.num_reads::total             197255                       # Number of read requests responded to by this memory
system.mem_ctrls0.num_writes::ruby.dir_cntrl0       125863                       # Number of write requests responded to by this memory
system.mem_ctrls0.num_writes::total            125863                       # Number of write requests responded to by this memory
system.mem_ctrls0.bw_read::ruby.dir_cntrl0    220763519                       # Total read bandwidth from this memory (bytes/s)
system.mem_ctrls0.bw_read::total            220763519                       # Total read bandwidth from this memory (bytes/s)
system.mem_ctrls0.bw_write::ruby.dir_cntrl0    140863141                       # Write bandwidth from this memory (bytes/s)
system.mem_ctrls0.bw_write::total           140863141                       # Write bandwidth from this memory (bytes/s)
system.mem_ctrls0.bw_total::ruby.dir_cntrl0    361626660                       # Total bandwidth to/from this memory (bytes/s)
system.mem_ctrls0.bw_total::total           361626660                       # Total bandwidth to/from this memory (bytes/s)
system.mem_ctrls0.readReqs                     197255                       # Number of read requests accepted
system.mem_ctrls0.writeReqs                    125863                       # Number of write requests accepted
system.mem_ctrls0.readBursts                   197255                       # Number of DRAM read bursts, including those serviced by the write queue
system.mem_ctrls0.writeBursts                  125863                       # Number of DRAM write bursts, including those merged in the write queue
system.mem_ctrls0.bytesReadDRAM              12622272                       # Total number of bytes read from DRAM
system.mem_ctrls0.bytesReadWrQ                   2048                       # Total number of bytes read from write queue
system.mem_ctrls0.bytesWritten                8055104                       # Total number of bytes written to DRAM
system.mem_ctrls0.bytesReadSys               12624320                       # Total read bytes from the system interface side
system.mem_ctrls0.bytesWrittenSys             8055232                       # Total written bytes from the system interface side
system.mem_ctrls0.servicedByWrQ                    32                       # Number of DRAM read bursts serviced by the write queue
system.mem_ctrls0.mergedWrBursts                    0                       # Number of DRAM write bursts merged with an existing one
system.mem_ctrls0.neitherReadNorWriteReqs            0                       # Number of requests that are neither read nor write
system.mem_ctrls0.perBankRdBursts::0            12074                       # Per bank write bursts
system.mem_ctrls0.perBankRdBursts::1            12219                       # Per bank write bursts
system.mem_ctrls0.perBankRdBursts::2            12046                       # Per bank write bursts
system.mem_ctrls0.perBankRdBursts::3            12422                       # Per bank write bursts
system.mem_ctrls0.perBankRdBursts::4            12230                       # Per bank write bursts
system.mem_ctrls0.perBankRdBursts::5            12304                       # Per bank write bursts
system.mem_ctrls0.perBankRdBursts::6            12444                       # Per bank write bursts
system.mem_ctrls0.perBankRdBursts::7            12621                       # Per bank write bursts
system.mem_ctrls0.perBankRdBursts::8            12413                       # Per bank write bursts
system.mem_ctrls0.perBankRdBursts::9            12769                       # Per bank write bursts
system.mem_ctrls0.perBankRdBursts::10           12439                       # Per bank write bursts
system.mem_ctrls0.perBankRdBursts::11           12696                       # Per bank write bursts
system.mem_ctrls0.perBankRdBursts::12           12294                       # Per bank write bursts
system.mem_ctrls0.perBankRdBursts::13           12057                       # Per bank write bursts
system.mem_ctrls0.perBankRdBursts::14           12293                       # Per bank write bursts
system.mem_ctrls0.perBankRdBursts::15           11902                       # Per bank write bursts
system.mem_ctrls0.perBankWrBursts::0             7801                       # Per bank write bursts
system.mem_ctrls0.perBankWrBursts::1             7659                       # Per bank write bursts
system.mem_ctrls0.perBankWrBursts::2             7814                       # Per bank write bursts
system.mem_ctrls0.perBankWrBursts::3             7896                       # Per bank write bursts
system.mem_ctrls0.perBankWrBursts::4             7828                       # Per bank write bursts
system.mem_ctrls0.perBankWrBursts::5             7892                       # Per bank write bursts
system.mem_ctrls0.perBankWrBursts::6             8011                       # Per bank write bursts
system.mem_ctrls0.perBankWrBursts::7             8068                       # Per bank write bursts
system.mem_ctrls0.perBankWrBursts::8             7925                       # Per bank write bursts
system.mem_ctrls0.perBankWrBursts::9             8099                       # Per bank write bursts
system.mem_ctrls0.perBankWrBursts::10            7898                       # Per bank write bursts
system.mem_ctrls0.perBankWrBursts::11            7899                       # Per bank write bursts
system.mem_ctrls0.perBankWrBursts::12            7765                       # Per bank write bursts
system.mem_ctrls0.perBankWrBursts::13            7816                       # Per bank write bursts
system.mem_ctrls0.perBankWrBursts::14            7865                       # Per bank write bursts
system.mem_ctrls0.perBankWrBursts::15            7625                       # Per bank write bursts
system.mem_ctrls0.numRdRetry                      472                       # Number of times read queue was full causing retry
system.mem_ctrls0.numWrRetry                     3236                       # Number of times write queue was full causing retry
system.mem_ctrls0.totGap                  57184305500                       # Total gap between requests
system.mem_ctrls0.readPktSize::0                    0                       # Read request sizes (log2)
system.mem_ctrls0.readPktSize::1                    0                       # Read request sizes (log2)
system.mem_ctrls0.readPktSize::2                    0                       # Read request sizes (log2)
system.mem_ctrls0.readPktSize::3                    0                       # Read request sizes (log2)
system.mem_ctrls0.readPktSize::4                    0                       # Read request sizes (log2)
system.mem_ctrls0.readPktSize::5                    0                       # Read request sizes (log2)
system.mem_ctrls0.readPktSize::6               197255                       # Read request sizes (log2)
system.mem_ctrls0.writePktSize::0                   0                       # Write request sizes (log2)
system.mem_ctrls0.writePktSize::1                   0                       # Write request sizes (log2)
system.mem_ctrls0.writePktSize::2                   0                       # Write request sizes (log2)
system.mem_ctrls0.writePktSize::3                   0                       # Write request sizes (log2)
system.mem_ctrls0.writePktSize::4                   0                       # Write request sizes (log2)
system.mem_ctrls0.writePktSize::5                   0                       # Write request sizes (log2)
system.mem_ctrls0.writePktSize::6              125863                       # Write request sizes (log2)
system.mem_ctrls0.rdQLenPdf::0                  74065                       # What read queue length does an incoming req see
system.mem_ctrls0.rdQLenPdf::1                  10330                       # What read queue length does an incoming req see
system.mem_ctrls0.rdQLenPdf::2                   9278                       # What read queue length does an incoming req see
system.mem_ctrls0.rdQLenPdf::3                   8494                       # What read queue length does an incoming req see
system.mem_ctrls0.rdQLenPdf::4                   8496                       # What read queue length does an incoming req see
system.mem_ctrls0.rdQLenPdf::5                   8629                       # What read queue length does an incoming req see
system.mem_ctrls0.rdQLenPdf::6                   8417                       # What read queue length does an incoming req see
system.mem_ctrls0.rdQLenPdf::7                   8032                       # What read queue length does an incoming req see
system.mem_ctrls0.rdQLenPdf::8                   7399                       # What read queue length does an incoming req see
system.mem_ctrls0.rdQLenPdf::9                   6789                       # What read queue length does an incoming req see
system.mem_ctrls0.rdQLenPdf::10                  6196                       # What read queue length does an incoming req see
system.mem_ctrls0.rdQLenPdf::11                  5598                       # What read queue length does an incoming req see
system.mem_ctrls0.rdQLenPdf::12                  4894                       # What read queue length does an incoming req see
system.mem_ctrls0.rdQLenPdf::13                  4275                       # What read queue length does an incoming req see
system.mem_ctrls0.rdQLenPdf::14                  3747                       # What read queue length does an incoming req see
system.mem_ctrls0.rdQLenPdf::15                  3378                       # What read queue length does an incoming req see
system.mem_ctrls0.rdQLenPdf::16                  3002                       # What read queue length does an incoming req see
system.mem_ctrls0.rdQLenPdf::17                  2537                       # What read queue length does an incoming req see
system.mem_ctrls0.rdQLenPdf::18                  2224                       # What read queue length does an incoming req see
system.mem_ctrls0.rdQLenPdf::19                  1986                       # What read queue length does an incoming req see
system.mem_ctrls0.rdQLenPdf::20                  1613                       # What read queue length does an incoming req see
system.mem_ctrls0.rdQLenPdf::21                  1364                       # What read queue length does an incoming req see
system.mem_ctrls0.rdQLenPdf::22                  1174                       # What read queue length does an incoming req see
system.mem_ctrls0.rdQLenPdf::23                  1057                       # What read queue length does an incoming req see
system.mem_ctrls0.rdQLenPdf::24                   866                       # What read queue length does an incoming req see
system.mem_ctrls0.rdQLenPdf::25                   706                       # What read queue length does an incoming req see
system.mem_ctrls0.rdQLenPdf::26                   582                       # What read queue length does an incoming req see
system.mem_ctrls0.rdQLenPdf::27                   509                       # What read queue length does an incoming req see
system.mem_ctrls0.rdQLenPdf::28                   386                       # What read queue length does an incoming req see
system.mem_ctrls0.rdQLenPdf::29                   294                       # What read queue length does an incoming req see
system.mem_ctrls0.rdQLenPdf::30                   226                       # What read queue length does an incoming req see
system.mem_ctrls0.rdQLenPdf::31                   680                       # What read queue length does an incoming req see
system.mem_ctrls0.wrQLenPdf::0                  18912                       # What write queue length does an incoming req see
system.mem_ctrls0.wrQLenPdf::1                  21660                       # What write queue length does an incoming req see
system.mem_ctrls0.wrQLenPdf::2                  22522                       # What write queue length does an incoming req see
system.mem_ctrls0.wrQLenPdf::3                  22629                       # What write queue length does an incoming req see
system.mem_ctrls0.wrQLenPdf::4                  22487                       # What write queue length does an incoming req see
system.mem_ctrls0.wrQLenPdf::5                   6107                       # What write queue length does an incoming req see
system.mem_ctrls0.wrQLenPdf::6                   5428                       # What write queue length does an incoming req see
system.mem_ctrls0.wrQLenPdf::7                   6118                       # What write queue length does an incoming req see
system.mem_ctrls0.bytesPerActivate::samples        80261                       # Bytes accessed per row activation
system.mem_ctrls0.bytesPerActivate::mean   257.618719                       # Bytes accessed per row activation
system.mem_ctrls0.bytesPerActivate::gmean   179.158582                       # Bytes accessed per row activation
system.mem_ctrls0.bytesPerActivate::stdev   240.118031                       # Bytes accessed per row activation
system.mem_ctrls0.bytesPerActivate::0-127        24235     30.20%     30.20% # Bytes accessed per row activation
system.mem_ctrls0.bytesPerActivate::128-255        21079     26.26%     56.46% # Bytes accessed per row activation
system.mem_ctrls0.bytesPerActivate::256-383        20641     25.72%     82.18% # Bytes accessed per row activation
system.mem_ctrls0.bytesPerActivate::384-511         4170      5.20%     87.37% # Bytes accessed per row activation
system.mem_ctrls0.bytesPerActivate::512-639         2854      3.56%     90.93% # Bytes accessed per row activation
system.mem_ctrls0.bytesPerActivate::640-767         1693      2.11%     93.04% # Bytes accessed per row activation
system.mem_ctrls0.bytesPerActivate::768-895         1123      1.40%     94.44% # Bytes accessed per row activation
system.mem_ctrls0.bytesPerActivate::896-1023          978      1.22%     95.65% # Bytes accessed per row activation
system.mem_ctrls0.bytesPerActivate::1024-1151         3488      4.35%    100.00% # Bytes accessed per row activation
system.mem_ctrls0.bytesPerActivate::total        80261                       # Bytes accessed per row activation
system.mem_ctrls0.rdPerTurnAround::samples        19520                       # Reads before turning the bus around for writes
system.mem_ctrls0.rdPerTurnAround::mean     10.103484                       # Reads before turning the bus around for writes
system.mem_ctrls0.rdPerTurnAround::stdev    30.340666                       # Reads before turning the bus around for writes
system.mem_ctrls0.rdPerTurnAround::0-127        19511     99.95%     99.95% # Reads before turning the bus around for writes
system.mem_ctrls0.rdPerTurnAround::128-255            8      0.04%     99.99% # Reads before turning the bus around for writes
system.mem_ctrls0.rdPerTurnAround::3968-4095            1      0.01%    100.00% # Reads before turning the bus around for writes
system.mem_ctrls0.rdPerTurnAround::total        19520                       # Reads before turning the bus around for writes
system.mem_ctrls0.wrPerTurnAround::samples        19520                       # Writes before turning the bus around for reads
system.mem_ctrls0.wrPerTurnAround::mean      6.447797                       # Writes before turning the bus around for reads
system.mem_ctrls0.wrPerTurnAround::gmean     6.028477                       # Writes before turning the bus around for reads
system.mem_ctrls0.wrPerTurnAround::stdev     2.850285                       # Writes before turning the bus around for reads
system.mem_ctrls0.wrPerTurnAround::4-7          15546     79.64%     79.64% # Writes before turning the bus around for reads
system.mem_ctrls0.wrPerTurnAround::8-11          2355     12.06%     91.71% # Writes before turning the bus around for reads
system.mem_ctrls0.wrPerTurnAround::12-15          873      4.47%     96.18% # Writes before turning the bus around for reads
system.mem_ctrls0.wrPerTurnAround::16-19          746      3.82%    100.00% # Writes before turning the bus around for reads
system.mem_ctrls0.wrPerTurnAround::total        19520                       # Writes before turning the bus around for reads
system.mem_ctrls0.totQLat                 13326873501                       # Total ticks spent queuing
system.mem_ctrls0.totMemAccLat            17024804751                       # Total ticks spent from burst creation until serviced by the DRAM
system.mem_ctrls0.totBusLat                 986115000                       # Total ticks spent in databus transfers
system.mem_ctrls0.avgQLat                    67572.61                       # Average queueing delay per DRAM burst
system.mem_ctrls0.avgBusLat                   5000.00                       # Average bus latency per DRAM burst
system.mem_ctrls0.avgMemAccLat               86322.61                       # Average memory access latency per DRAM burst
system.mem_ctrls0.avgRdBW                      220.73                       # Average DRAM read bandwidth in MiByte/s
system.mem_ctrls0.avgWrBW                      140.86                       # Average achieved write bandwidth in MiByte/s
system.mem_ctrls0.avgRdBWSys                   220.76                       # Average system read bandwidth in MiByte/s
system.mem_ctrls0.avgWrBWSys                   140.86                       # Average system write bandwidth in MiByte/s
system.mem_ctrls0.peakBW                     12800.00                       # Theoretical peak bandwidth in MiByte/s
system.mem_ctrls0.busUtil                        2.82                       # Data bus utilization in percentage
system.mem_ctrls0.busUtilRead                    1.72                       # Data bus utilization in percentage for reads
system.mem_ctrls0.busUtilWrite                   1.10                       # Data bus utilization in percentage for writes
system.mem_ctrls0.avgRdQLen                      1.27                       # Average read queue length when enqueuing
system.mem_ctrls0.avgWrQLen                      2.91                       # Average write queue length when enqueuing
system.mem_ctrls0.readRowHits                  155793                       # Number of row buffer hits during reads
system.mem_ctrls0.writeRowHits                  87021                       # Number of row buffer hits during writes
system.mem_ctrls0.readRowHitRate                78.99                       # Row buffer hit rate for reads
system.mem_ctrls0.writeRowHitRate               69.14                       # Row buffer hit rate for writes
system.mem_ctrls0.avgGap                    176976.54                       # Average gap between requests
system.mem_ctrls0.pageHitRate                   75.15                       # Row buffer hit rate, read and write combined
system.mem_ctrls0.memoryStateTime::IDLE   11628632000                       # Time in different power states
system.mem_ctrls0.memoryStateTime::REF     1909440000                       # Time in different power states
system.mem_ctrls0.memoryStateTime::PRE_PDN            0                       # Time in different power states
system.mem_ctrls0.memoryStateTime::ACT    43644421750                       # Time in different power states
system.mem_ctrls0.memoryStateTime::ACT_PDN            0                       # Time in different power states
system.mem_ctrls0.actEnergy::0              306316080                       # Energy for activate commands per rank (pJ)
system.mem_ctrls0.actEnergy::1              300419280                       # Energy for activate commands per rank (pJ)
system.mem_ctrls0.preEnergy::0              167136750                       # Energy for precharge commands per rank (pJ)
system.mem_ctrls0.preEnergy::1              163919250                       # Energy for precharge commands per rank (pJ)
system.mem_ctrls0.readEnergy::0             767176800                       # Energy for read commands per rank (pJ)
system.mem_ctrls0.readEnergy::1             771061200                       # Energy for read commands per rank (pJ)
system.mem_ctrls0.writeEnergy::0            408039120                       # Energy for write commands per rank (pJ)
system.mem_ctrls0.writeEnergy::1            407507760                       # Energy for write commands per rank (pJ)
system.mem_ctrls0.refreshEnergy::0         3734864640                       # Energy for refresh commands per rank (pJ)
system.mem_ctrls0.refreshEnergy::1         3734864640                       # Energy for refresh commands per rank (pJ)
system.mem_ctrls0.actBackEnergy::0        22613169105                       # Energy for active background per rank (pJ)
system.mem_ctrls0.actBackEnergy::1        22095378540                       # Energy for active background per rank (pJ)
system.mem_ctrls0.preBackEnergy::0        14473374750                       # Energy for precharge background per rank (pJ)
system.mem_ctrls0.preBackEnergy::1        14927577000                       # Energy for precharge background per rank (pJ)
system.mem_ctrls0.totalEnergy::0          42470077245                       # Total energy per rank (pJ)
system.mem_ctrls0.totalEnergy::1          42400727670                       # Total energy per rank (pJ)
system.mem_ctrls0.averagePower::0          742.711356                       # Core power per rank (mW)
system.mem_ctrls0.averagePower::1          741.498579                       # Core power per rank (mW)
system.mem_ctrls1.bytes_read::ruby.dir_cntrl1     12403712                       # Number of bytes read from this memory
system.mem_ctrls1.bytes_read::total          12403712                       # Number of bytes read from this memory
system.mem_ctrls1.bytes_written::ruby.dir_cntrl1      7840064                       # Number of bytes written to this memory
system.mem_ctrls1.bytes_written::total        7840064                       # Number of bytes written to this memory
system.mem_ctrls1.num_reads::ruby.dir_cntrl1       193808                       # Number of read requests responded to by this memory
system.mem_ctrls1.num_reads::total             193808                       # Number of read requests responded to by this memory
system.mem_ctrls1.num_writes::ruby.dir_cntrl1       122501                       # Number of write requests responded to by this memory
system.mem_ctrls1.num_writes::total            122501                       # Number of write requests responded to by this memory
system.mem_ctrls1.bw_read::ruby.dir_cntrl1    216905711                       # Total read bandwidth from this memory (bytes/s)
system.mem_ctrls1.bw_read::total            216905711                       # Total read bandwidth from this memory (bytes/s)
system.mem_ctrls1.bw_write::ruby.dir_cntrl1    137100463                       # Write bandwidth from this memory (bytes/s)
system.mem_ctrls1.bw_write::total           137100463                       # Write bandwidth from this memory (bytes/s)
system.mem_ctrls1.bw_total::ruby.dir_cntrl1    354006174                       # Total bandwidth to/from this memory (bytes/s)
system.mem_ctrls1.bw_total::total           354006174                       # Total bandwidth to/from this memory (bytes/s)
system.mem_ctrls1.readReqs                     193810                       # Number of read requests accepted
system.mem_ctrls1.writeReqs                    122501                       # Number of write requests accepted
system.mem_ctrls1.readBursts                   193810                       # Number of DRAM read bursts, including those serviced by the write queue
system.mem_ctrls1.writeBursts                  122501                       # Number of DRAM write bursts, including those merged in the write queue
system.mem_ctrls1.bytesReadDRAM              12401728                       # Total number of bytes read from DRAM
system.mem_ctrls1.bytesReadWrQ                   2112                       # Total number of bytes read from write queue
system.mem_ctrls1.bytesWritten                7840064                       # Total number of bytes written to DRAM
system.mem_ctrls1.bytesReadSys               12403840                       # Total read bytes from the system interface side
system.mem_ctrls1.bytesWrittenSys             7840064                       # Total written bytes from the system interface side
system.mem_ctrls1.servicedByWrQ                    33                       # Number of DRAM read bursts serviced by the write queue
system.mem_ctrls1.mergedWrBursts                    0                       # Number of DRAM write bursts merged with an existing one
system.mem_ctrls1.neitherReadNorWriteReqs            0                       # Number of requests that are neither read nor write
system.mem_ctrls1.perBankRdBursts::0            11867                       # Per bank write bursts
system.mem_ctrls1.perBankRdBursts::1            12000                       # Per bank write bursts
system.mem_ctrls1.perBankRdBursts::2            11824                       # Per bank write bursts
system.mem_ctrls1.perBankRdBursts::3            12192                       # Per bank write bursts
system.mem_ctrls1.perBankRdBursts::4            12033                       # Per bank write bursts
system.mem_ctrls1.perBankRdBursts::5            12134                       # Per bank write bursts
system.mem_ctrls1.perBankRdBursts::6            12259                       # Per bank write bursts
system.mem_ctrls1.perBankRdBursts::7            12419                       # Per bank write bursts
system.mem_ctrls1.perBankRdBursts::8            12186                       # Per bank write bursts
system.mem_ctrls1.perBankRdBursts::9            12544                       # Per bank write bursts
system.mem_ctrls1.perBankRdBursts::10           12210                       # Per bank write bursts
system.mem_ctrls1.perBankRdBursts::11           12509                       # Per bank write bursts
system.mem_ctrls1.perBankRdBursts::12           12074                       # Per bank write bursts
system.mem_ctrls1.perBankRdBursts::13           11829                       # Per bank write bursts
system.mem_ctrls1.perBankRdBursts::14           11984                       # Per bank write bursts
system.mem_ctrls1.perBankRdBursts::15           11713                       # Per bank write bursts
system.mem_ctrls1.perBankWrBursts::0             7601                       # Per bank write bursts
system.mem_ctrls1.perBankWrBursts::1             7470                       # Per bank write bursts
system.mem_ctrls1.perBankWrBursts::2             7617                       # Per bank write bursts
system.mem_ctrls1.perBankWrBursts::3             7686                       # Per bank write bursts
system.mem_ctrls1.perBankWrBursts::4             7635                       # Per bank write bursts
system.mem_ctrls1.perBankWrBursts::5             7698                       # Per bank write bursts
system.mem_ctrls1.perBankWrBursts::6             7788                       # Per bank write bursts
system.mem_ctrls1.perBankWrBursts::7             7850                       # Per bank write bursts
system.mem_ctrls1.perBankWrBursts::8             7714                       # Per bank write bursts
system.mem_ctrls1.perBankWrBursts::9             7884                       # Per bank write bursts
system.mem_ctrls1.perBankWrBursts::10            7680                       # Per bank write bursts
system.mem_ctrls1.perBankWrBursts::11            7691                       # Per bank write bursts
system.mem_ctrls1.perBankWrBursts::12            7557                       # Per bank write bursts
system.mem_ctrls1.perBankWrBursts::13            7603                       # Per bank write bursts
system.mem_ctrls1.perBankWrBursts::14            7599                       # Per bank write bursts
system.mem_ctrls1.perBankWrBursts::15            7428                       # Per bank write bursts
system.mem_ctrls1.numRdRetry                      314                       # Number of times read queue was full causing retry
system.mem_ctrls1.numWrRetry                     3167                       # Number of times write queue was full causing retry
system.mem_ctrls1.totGap                  57184182000                       # Total gap between requests
system.mem_ctrls1.readPktSize::0                    0                       # Read request sizes (log2)
system.mem_ctrls1.readPktSize::1                    0                       # Read request sizes (log2)
system.mem_ctrls1.readPktSize::2                    0                       # Read request sizes (log2)
system.mem_ctrls1.readPktSize::3                    0                       # Read request sizes (log2)
system.mem_ctrls1.readPktSize::4                    0                       # Read request sizes (log2)
system.mem_ctrls1.readPktSize::5                    0                       # Read request sizes (log2)
system.mem_ctrls1.readPktSize::6               193810                       # Read request sizes (log2)
system.mem_ctrls1.writePktSize::0                   0                       # Write request sizes (log2)
system.mem_ctrls1.writePktSize::1                   0                       # Write request sizes (log2)
system.mem_ctrls1.writePktSize::2                   0                       # Write request sizes (log2)
system.mem_ctrls1.writePktSize::3                   0                       # Write request sizes (log2)
system.mem_ctrls1.writePktSize::4                   0                       # Write request sizes (log2)
system.mem_ctrls1.writePktSize::5                   0                       # Write request sizes (log2)
system.mem_ctrls1.writePktSize::6              122501                       # Write request sizes (log2)
system.mem_ctrls1.rdQLenPdf::0                  72929                       # What read queue length does an incoming req see
system.mem_ctrls1.rdQLenPdf::1                   9093                       # What read queue length does an incoming req see
system.mem_ctrls1.rdQLenPdf::2                   8955                       # What read queue length does an incoming req see
system.mem_ctrls1.rdQLenPdf::3                   8921                       # What read queue length does an incoming req see
system.mem_ctrls1.rdQLenPdf::4                   8948                       # What read queue length does an incoming req see
system.mem_ctrls1.rdQLenPdf::5                   8673                       # What read queue length does an incoming req see
system.mem_ctrls1.rdQLenPdf::6                   8457                       # What read queue length does an incoming req see
system.mem_ctrls1.rdQLenPdf::7                   7988                       # What read queue length does an incoming req see
system.mem_ctrls1.rdQLenPdf::8                   7305                       # What read queue length does an incoming req see
system.mem_ctrls1.rdQLenPdf::9                   6820                       # What read queue length does an incoming req see
system.mem_ctrls1.rdQLenPdf::10                  6136                       # What read queue length does an incoming req see
system.mem_ctrls1.rdQLenPdf::11                  5483                       # What read queue length does an incoming req see
system.mem_ctrls1.rdQLenPdf::12                  4884                       # What read queue length does an incoming req see
system.mem_ctrls1.rdQLenPdf::13                  4329                       # What read queue length does an incoming req see
system.mem_ctrls1.rdQLenPdf::14                  3678                       # What read queue length does an incoming req see
system.mem_ctrls1.rdQLenPdf::15                  3218                       # What read queue length does an incoming req see
system.mem_ctrls1.rdQLenPdf::16                  2754                       # What read queue length does an incoming req see
system.mem_ctrls1.rdQLenPdf::17                  2438                       # What read queue length does an incoming req see
system.mem_ctrls1.rdQLenPdf::18                  2097                       # What read queue length does an incoming req see
system.mem_ctrls1.rdQLenPdf::19                  1786                       # What read queue length does an incoming req see
system.mem_ctrls1.rdQLenPdf::20                  1579                       # What read queue length does an incoming req see
system.mem_ctrls1.rdQLenPdf::21                  1343                       # What read queue length does an incoming req see
system.mem_ctrls1.rdQLenPdf::22                  1111                       # What read queue length does an incoming req see
system.mem_ctrls1.rdQLenPdf::23                   963                       # What read queue length does an incoming req see
system.mem_ctrls1.rdQLenPdf::24                   827                       # What read queue length does an incoming req see
system.mem_ctrls1.rdQLenPdf::25                   712                       # What read queue length does an incoming req see
system.mem_ctrls1.rdQLenPdf::26                   587                       # What read queue length does an incoming req see
system.mem_ctrls1.rdQLenPdf::27                   466                       # What read queue length does an incoming req see
system.mem_ctrls1.rdQLenPdf::28                   380                       # What read queue length does an incoming req see
system.mem_ctrls1.rdQLenPdf::29                   270                       # What read queue length does an incoming req see
system.mem_ctrls1.rdQLenPdf::30                   191                       # What read queue length does an incoming req see
system.mem_ctrls1.rdQLenPdf::31                   456                       # What read queue length does an incoming req see
system.mem_ctrls1.wrQLenPdf::0                  18371                       # What write queue length does an incoming req see
system.mem_ctrls1.wrQLenPdf::1                  21000                       # What write queue length does an incoming req see
system.mem_ctrls1.wrQLenPdf::2                  21735                       # What write queue length does an incoming req see
system.mem_ctrls1.wrQLenPdf::3                  21991                       # What write queue length does an incoming req see
system.mem_ctrls1.wrQLenPdf::4                  21945                       # What write queue length does an incoming req see
system.mem_ctrls1.wrQLenPdf::5                   6082                       # What write queue length does an incoming req see
system.mem_ctrls1.wrQLenPdf::6                   5321                       # What write queue length does an incoming req see
system.mem_ctrls1.wrQLenPdf::7                   6056                       # What write queue length does an incoming req see
system.mem_ctrls1.bytesPerActivate::samples        72958                       # Bytes accessed per row activation
system.mem_ctrls1.bytesPerActivate::mean   277.436553                       # Bytes accessed per row activation
system.mem_ctrls1.bytesPerActivate::gmean   196.999795                       # Bytes accessed per row activation
system.mem_ctrls1.bytesPerActivate::stdev   246.552703                       # Bytes accessed per row activation
system.mem_ctrls1.bytesPerActivate::0-127        17935     24.58%     24.58% # Bytes accessed per row activation
system.mem_ctrls1.bytesPerActivate::128-255        20028     27.45%     52.03% # Bytes accessed per row activation
system.mem_ctrls1.bytesPerActivate::256-383        20591     28.22%     80.26% # Bytes accessed per row activation
system.mem_ctrls1.bytesPerActivate::384-511         4185      5.74%     85.99% # Bytes accessed per row activation
system.mem_ctrls1.bytesPerActivate::512-639         2821      3.87%     89.86% # Bytes accessed per row activation
system.mem_ctrls1.bytesPerActivate::640-767         1651      2.26%     92.12% # Bytes accessed per row activation
system.mem_ctrls1.bytesPerActivate::768-895         1161      1.59%     93.71% # Bytes accessed per row activation
system.mem_ctrls1.bytesPerActivate::896-1023          871      1.19%     94.91% # Bytes accessed per row activation
system.mem_ctrls1.bytesPerActivate::1024-1151         3715      5.09%    100.00% # Bytes accessed per row activation
system.mem_ctrls1.bytesPerActivate::total        72958                       # Bytes accessed per row activation
system.mem_ctrls1.rdPerTurnAround::samples        18988                       # Reads before turning the bus around for writes
system.mem_ctrls1.rdPerTurnAround::mean     10.205130                       # Reads before turning the bus around for writes
system.mem_ctrls1.rdPerTurnAround::stdev    24.945941                       # Reads before turning the bus around for writes
system.mem_ctrls1.rdPerTurnAround::0-127        18979     99.95%     99.95% # Reads before turning the bus around for writes
system.mem_ctrls1.rdPerTurnAround::128-255            7      0.04%     99.99% # Reads before turning the bus around for writes
system.mem_ctrls1.rdPerTurnAround::1152-1279            1      0.01%     99.99% # Reads before turning the bus around for writes
system.mem_ctrls1.rdPerTurnAround::2816-2943            1      0.01%    100.00% # Reads before turning the bus around for writes
system.mem_ctrls1.rdPerTurnAround::total        18988                       # Reads before turning the bus around for writes
system.mem_ctrls1.wrPerTurnAround::samples        18988                       # Writes before turning the bus around for reads
system.mem_ctrls1.wrPerTurnAround::mean      6.451496                       # Writes before turning the bus around for reads
system.mem_ctrls1.wrPerTurnAround::gmean     6.030514                       # Writes before turning the bus around for reads
system.mem_ctrls1.wrPerTurnAround::stdev     2.852848                       # Writes before turning the bus around for reads
system.mem_ctrls1.wrPerTurnAround::4-7          15054     79.28%     79.28% # Writes before turning the bus around for reads
system.mem_ctrls1.wrPerTurnAround::8-11          2382     12.54%     91.83% # Writes before turning the bus around for reads
system.mem_ctrls1.wrPerTurnAround::12-15          814      4.29%     96.11% # Writes before turning the bus around for reads
system.mem_ctrls1.wrPerTurnAround::16-19          738      3.89%    100.00% # Writes before turning the bus around for reads
system.mem_ctrls1.wrPerTurnAround::total        18988                       # Writes before turning the bus around for reads
system.mem_ctrls1.totQLat                 12785270899                       # Total ticks spent queuing
system.mem_ctrls1.totMemAccLat            16418589649                       # Total ticks spent from burst creation until serviced by the DRAM
system.mem_ctrls1.totBusLat                 968885000                       # Total ticks spent in databus transfers
system.mem_ctrls1.avgQLat                    65979.30                       # Average queueing delay per DRAM burst
system.mem_ctrls1.avgBusLat                   5000.00                       # Average bus latency per DRAM burst
system.mem_ctrls1.avgMemAccLat               84729.30                       # Average memory access latency per DRAM burst
system.mem_ctrls1.avgRdBW                      216.87                       # Average DRAM read bandwidth in MiByte/s
system.mem_ctrls1.avgWrBW                      137.10                       # Average achieved write bandwidth in MiByte/s
system.mem_ctrls1.avgRdBWSys                   216.91                       # Average system read bandwidth in MiByte/s
system.mem_ctrls1.avgWrBWSys                   137.10                       # Average system write bandwidth in MiByte/s
system.mem_ctrls1.peakBW                     12800.00                       # Theoretical peak bandwidth in MiByte/s
system.mem_ctrls1.busUtil                        2.77                       # Data bus utilization in percentage
system.mem_ctrls1.busUtilRead                    1.69                       # Data bus utilization in percentage for reads
system.mem_ctrls1.busUtilWrite                   1.07                       # Data bus utilization in percentage for writes
system.mem_ctrls1.avgRdQLen                      1.27                       # Average read queue length when enqueuing
system.mem_ctrls1.avgWrQLen                      2.96                       # Average write queue length when enqueuing
system.mem_ctrls1.readRowHits                  155015                       # Number of row buffer hits during reads
system.mem_ctrls1.writeRowHits                  88297                       # Number of row buffer hits during writes
system.mem_ctrls1.readRowHitRate                80.00                       # Row buffer hit rate for reads
system.mem_ctrls1.writeRowHitRate               72.08                       # Row buffer hit rate for writes
system.mem_ctrls1.avgGap                    180784.68                       # Average gap between requests
system.mem_ctrls1.pageHitRate                   76.93                       # Row buffer hit rate, read and write combined
system.mem_ctrls1.memoryStateTime::IDLE   11894185250                       # Time in different power states
system.mem_ctrls1.memoryStateTime::REF     1909440000                       # Time in different power states
system.mem_ctrls1.memoryStateTime::PRE_PDN            0                       # Time in different power states
system.mem_ctrls1.memoryStateTime::ACT    43379082250                       # Time in different power states
system.mem_ctrls1.memoryStateTime::ACT_PDN            0                       # Time in different power states
system.mem_ctrls1.actEnergy::0              279311760                       # Energy for activate commands per rank (pJ)
system.mem_ctrls1.actEnergy::1              272220480                       # Energy for activate commands per rank (pJ)
system.mem_ctrls1.preEnergy::0              152402250                       # Energy for precharge commands per rank (pJ)
system.mem_ctrls1.preEnergy::1              148533000                       # Energy for precharge commands per rank (pJ)
system.mem_ctrls1.readEnergy::0             754439400                       # Energy for read commands per rank (pJ)
system.mem_ctrls1.readEnergy::1             756919800                       # Energy for read commands per rank (pJ)
system.mem_ctrls1.writeEnergy::0            397509120                       # Energy for write commands per rank (pJ)
system.mem_ctrls1.writeEnergy::1            396264960                       # Energy for write commands per rank (pJ)
system.mem_ctrls1.refreshEnergy::0         3734864640                       # Energy for refresh commands per rank (pJ)
system.mem_ctrls1.refreshEnergy::1         3734864640                       # Energy for refresh commands per rank (pJ)
system.mem_ctrls1.actBackEnergy::0        22388846175                       # Energy for active background per rank (pJ)
system.mem_ctrls1.actBackEnergy::1        21836464875                       # Energy for active background per rank (pJ)
system.mem_ctrls1.preBackEnergy::0        14670165000                       # Energy for precharge background per rank (pJ)
system.mem_ctrls1.preBackEnergy::1        15154710000                       # Energy for precharge background per rank (pJ)
system.mem_ctrls1.totalEnergy::0          42377538345                       # Total energy per rank (pJ)
system.mem_ctrls1.totalEnergy::1          42299977755                       # Total energy per rank (pJ)
system.mem_ctrls1.averagePower::0          741.092707                       # Core power per rank (mW)
system.mem_ctrls1.averagePower::1          739.736338                       # Core power per rank (mW)
system.mem_ctrls2.bytes_read::ruby.dir_cntrl2     12404224                       # Number of bytes read from this memory
system.mem_ctrls2.bytes_read::total          12404224                       # Number of bytes read from this memory
system.mem_ctrls2.bytes_written::ruby.dir_cntrl2      7839936                       # Number of bytes written to this memory
system.mem_ctrls2.bytes_written::total        7839936                       # Number of bytes written to this memory
system.mem_ctrls2.num_reads::ruby.dir_cntrl2       193816                       # Number of read requests responded to by this memory
system.mem_ctrls2.num_reads::total             193816                       # Number of read requests responded to by this memory
system.mem_ctrls2.num_writes::ruby.dir_cntrl2       122499                       # Number of write requests responded to by this memory
system.mem_ctrls2.num_writes::total            122499                       # Number of write requests responded to by this memory
system.mem_ctrls2.bw_read::ruby.dir_cntrl2    216914665                       # Total read bandwidth from this memory (bytes/s)
system.mem_ctrls2.bw_read::total            216914665                       # Total read bandwidth from this memory (bytes/s)
system.mem_ctrls2.bw_write::ruby.dir_cntrl2    137098225                       # Write bandwidth from this memory (bytes/s)
system.mem_ctrls2.bw_write::total           137098225                       # Write bandwidth from this memory (bytes/s)
system.mem_ctrls2.bw_total::ruby.dir_cntrl2    354012889                       # Total bandwidth to/from this memory (bytes/s)
system.mem_ctrls2.bw_total::total           354012889                       # Total bandwidth to/from this memory (bytes/s)
system.mem_ctrls2.readReqs                     193816                       # Number of read requests accepted
system.mem_ctrls2.writeReqs                    122499                       # Number of write requests accepted
system.mem_ctrls2.readBursts                   193816                       # Number of DRAM read bursts, including those serviced by the write queue
system.mem_ctrls2.writeBursts                  122499                       # Number of DRAM write bursts, including those merged in the write queue
system.mem_ctrls2.bytesReadDRAM              12402496                       # Total number of bytes read from DRAM
system.mem_ctrls2.bytesReadWrQ                   1728                       # Total number of bytes read from write queue
system.mem_ctrls2.bytesWritten                7839936                       # Total number of bytes written to DRAM
system.mem_ctrls2.bytesReadSys               12404224                       # Total read bytes from the system interface side
system.mem_ctrls2.bytesWrittenSys             7839936                       # Total written bytes from the system interface side
system.mem_ctrls2.servicedByWrQ                    27                       # Number of DRAM read bursts serviced by the write queue
system.mem_ctrls2.mergedWrBursts                    0                       # Number of DRAM write bursts merged with an existing one
system.mem_ctrls2.neitherReadNorWriteReqs            0                       # Number of requests that are neither read nor write
system.mem_ctrls2.perBankRdBursts::0            11864                       # Per bank write bursts
system.mem_ctrls2.perBankRdBursts::1            12031                       # Per bank write bursts
system.mem_ctrls2.perBankRdBursts::2            11851                       # Per bank write bursts
system.mem_ctrls2.perBankRdBursts::3            12234                       # Per bank write bursts
system.mem_ctrls2.perBankRdBursts::4            12039                       # Per bank write bursts
system.mem_ctrls2.perBankRdBursts::5            12112                       # Per bank write bursts
system.mem_ctrls2.perBankRdBursts::6            12231                       # Per bank write bursts
system.mem_ctrls2.perBankRdBursts::7            12420                       # Per bank write bursts
system.mem_ctrls2.perBankRdBursts::8            12178                       # Per bank write bursts
system.mem_ctrls2.perBankRdBursts::9            12525                       # Per bank write bursts
system.mem_ctrls2.perBankRdBursts::10           12221                       # Per bank write bursts
system.mem_ctrls2.perBankRdBursts::11           12546                       # Per bank write bursts
system.mem_ctrls2.perBankRdBursts::12           12069                       # Per bank write bursts
system.mem_ctrls2.perBankRdBursts::13           11790                       # Per bank write bursts
system.mem_ctrls2.perBankRdBursts::14           11964                       # Per bank write bursts
system.mem_ctrls2.perBankRdBursts::15           11714                       # Per bank write bursts
system.mem_ctrls2.perBankWrBursts::0             7594                       # Per bank write bursts
system.mem_ctrls2.perBankWrBursts::1             7468                       # Per bank write bursts
system.mem_ctrls2.perBankWrBursts::2             7617                       # Per bank write bursts
system.mem_ctrls2.perBankWrBursts::3             7695                       # Per bank write bursts
system.mem_ctrls2.perBankWrBursts::4             7631                       # Per bank write bursts
system.mem_ctrls2.perBankWrBursts::5             7683                       # Per bank write bursts
system.mem_ctrls2.perBankWrBursts::6             7781                       # Per bank write bursts
system.mem_ctrls2.perBankWrBursts::7             7858                       # Per bank write bursts
system.mem_ctrls2.perBankWrBursts::8             7716                       # Per bank write bursts
system.mem_ctrls2.perBankWrBursts::9             7885                       # Per bank write bursts
system.mem_ctrls2.perBankWrBursts::10            7680                       # Per bank write bursts
system.mem_ctrls2.perBankWrBursts::11            7702                       # Per bank write bursts
system.mem_ctrls2.perBankWrBursts::12            7565                       # Per bank write bursts
system.mem_ctrls2.perBankWrBursts::13            7593                       # Per bank write bursts
system.mem_ctrls2.perBankWrBursts::14            7602                       # Per bank write bursts
system.mem_ctrls2.perBankWrBursts::15            7429                       # Per bank write bursts
system.mem_ctrls2.numRdRetry                      373                       # Number of times read queue was full causing retry
system.mem_ctrls2.numWrRetry                     3082                       # Number of times write queue was full causing retry
system.mem_ctrls2.totGap                  57184668500                       # Total gap between requests
system.mem_ctrls2.readPktSize::0                    0                       # Read request sizes (log2)
system.mem_ctrls2.readPktSize::1                    0                       # Read request sizes (log2)
system.mem_ctrls2.readPktSize::2                    0                       # Read request sizes (log2)
system.mem_ctrls2.readPktSize::3                    0                       # Read request sizes (log2)
system.mem_ctrls2.readPktSize::4                    0                       # Read request sizes (log2)
system.mem_ctrls2.readPktSize::5                    0                       # Read request sizes (log2)
system.mem_ctrls2.readPktSize::6               193816                       # Read request sizes (log2)
system.mem_ctrls2.writePktSize::0                   0                       # Write request sizes (log2)
system.mem_ctrls2.writePktSize::1                   0                       # Write request sizes (log2)
system.mem_ctrls2.writePktSize::2                   0                       # Write request sizes (log2)
system.mem_ctrls2.writePktSize::3                   0                       # Write request sizes (log2)
system.mem_ctrls2.writePktSize::4                   0                       # Write request sizes (log2)
system.mem_ctrls2.writePktSize::5                   0                       # Write request sizes (log2)
system.mem_ctrls2.writePktSize::6              122499                       # Write request sizes (log2)
system.mem_ctrls2.rdQLenPdf::0                  72875                       # What read queue length does an incoming req see
system.mem_ctrls2.rdQLenPdf::1                   8939                       # What read queue length does an incoming req see
system.mem_ctrls2.rdQLenPdf::2                   8845                       # What read queue length does an incoming req see
system.mem_ctrls2.rdQLenPdf::3                   8912                       # What read queue length does an incoming req see
system.mem_ctrls2.rdQLenPdf::4                   8730                       # What read queue length does an incoming req see
system.mem_ctrls2.rdQLenPdf::5                   8753                       # What read queue length does an incoming req see
system.mem_ctrls2.rdQLenPdf::6                   8484                       # What read queue length does an incoming req see
system.mem_ctrls2.rdQLenPdf::7                   8145                       # What read queue length does an incoming req see
system.mem_ctrls2.rdQLenPdf::8                   7415                       # What read queue length does an incoming req see
system.mem_ctrls2.rdQLenPdf::9                   6848                       # What read queue length does an incoming req see
system.mem_ctrls2.rdQLenPdf::10                  6080                       # What read queue length does an incoming req see
system.mem_ctrls2.rdQLenPdf::11                  5347                       # What read queue length does an incoming req see
system.mem_ctrls2.rdQLenPdf::12                  4932                       # What read queue length does an incoming req see
system.mem_ctrls2.rdQLenPdf::13                  4305                       # What read queue length does an incoming req see
system.mem_ctrls2.rdQLenPdf::14                  3801                       # What read queue length does an incoming req see
system.mem_ctrls2.rdQLenPdf::15                  3315                       # What read queue length does an incoming req see
system.mem_ctrls2.rdQLenPdf::16                  2852                       # What read queue length does an incoming req see
system.mem_ctrls2.rdQLenPdf::17                  2499                       # What read queue length does an incoming req see
system.mem_ctrls2.rdQLenPdf::18                  2087                       # What read queue length does an incoming req see
system.mem_ctrls2.rdQLenPdf::19                  1833                       # What read queue length does an incoming req see
system.mem_ctrls2.rdQLenPdf::20                  1563                       # What read queue length does an incoming req see
system.mem_ctrls2.rdQLenPdf::21                  1317                       # What read queue length does an incoming req see
system.mem_ctrls2.rdQLenPdf::22                  1133                       # What read queue length does an incoming req see
system.mem_ctrls2.rdQLenPdf::23                   934                       # What read queue length does an incoming req see
system.mem_ctrls2.rdQLenPdf::24                   819                       # What read queue length does an incoming req see
system.mem_ctrls2.rdQLenPdf::25                   674                       # What read queue length does an incoming req see
system.mem_ctrls2.rdQLenPdf::26                   568                       # What read queue length does an incoming req see
system.mem_ctrls2.rdQLenPdf::27                   478                       # What read queue length does an incoming req see
system.mem_ctrls2.rdQLenPdf::28                   368                       # What read queue length does an incoming req see
system.mem_ctrls2.rdQLenPdf::29                   263                       # What read queue length does an incoming req see
system.mem_ctrls2.rdQLenPdf::30                   172                       # What read queue length does an incoming req see
system.mem_ctrls2.rdQLenPdf::31                   503                       # What read queue length does an incoming req see
system.mem_ctrls2.wrQLenPdf::0                  18399                       # What write queue length does an incoming req see
system.mem_ctrls2.wrQLenPdf::1                  20948                       # What write queue length does an incoming req see
system.mem_ctrls2.wrQLenPdf::2                  21855                       # What write queue length does an incoming req see
system.mem_ctrls2.wrQLenPdf::3                  21971                       # What write queue length does an incoming req see
system.mem_ctrls2.wrQLenPdf::4                  21914                       # What write queue length does an incoming req see
system.mem_ctrls2.wrQLenPdf::5                   6155                       # What write queue length does an incoming req see
system.mem_ctrls2.wrQLenPdf::6                   5392                       # What write queue length does an incoming req see
system.mem_ctrls2.wrQLenPdf::7                   5865                       # What write queue length does an incoming req see
system.mem_ctrls2.bytesPerActivate::samples        72797                       # Bytes accessed per row activation
system.mem_ctrls2.bytesPerActivate::mean   278.059810                       # Bytes accessed per row activation
system.mem_ctrls2.bytesPerActivate::gmean   197.766347                       # Bytes accessed per row activation
system.mem_ctrls2.bytesPerActivate::stdev   246.070544                       # Bytes accessed per row activation
system.mem_ctrls2.bytesPerActivate::0-127        17773     24.41%     24.41% # Bytes accessed per row activation
system.mem_ctrls2.bytesPerActivate::128-255        19794     27.19%     51.61% # Bytes accessed per row activation
system.mem_ctrls2.bytesPerActivate::256-383        20826     28.61%     80.21% # Bytes accessed per row activation
system.mem_ctrls2.bytesPerActivate::384-511         4167      5.72%     85.94% # Bytes accessed per row activation
system.mem_ctrls2.bytesPerActivate::512-639         2900      3.98%     89.92% # Bytes accessed per row activation
system.mem_ctrls2.bytesPerActivate::640-767         1597      2.19%     92.12% # Bytes accessed per row activation
system.mem_ctrls2.bytesPerActivate::768-895         1180      1.62%     93.74% # Bytes accessed per row activation
system.mem_ctrls2.bytesPerActivate::896-1023          886      1.22%     94.95% # Bytes accessed per row activation
system.mem_ctrls2.bytesPerActivate::1024-1151         3674      5.05%    100.00% # Bytes accessed per row activation
system.mem_ctrls2.bytesPerActivate::total        72797                       # Bytes accessed per row activation
system.mem_ctrls2.rdPerTurnAround::samples        19001                       # Reads before turning the bus around for writes
system.mem_ctrls2.rdPerTurnAround::mean     10.198832                       # Reads before turning the bus around for writes
system.mem_ctrls2.rdPerTurnAround::stdev    24.954089                       # Reads before turning the bus around for writes
system.mem_ctrls2.rdPerTurnAround::0-127        18995     99.97%     99.97% # Reads before turning the bus around for writes
system.mem_ctrls2.rdPerTurnAround::128-255            4      0.02%     99.99% # Reads before turning the bus around for writes
system.mem_ctrls2.rdPerTurnAround::1152-1279            1      0.01%     99.99% # Reads before turning the bus around for writes
system.mem_ctrls2.rdPerTurnAround::2816-2943            1      0.01%    100.00% # Reads before turning the bus around for writes
system.mem_ctrls2.rdPerTurnAround::total        19001                       # Reads before turning the bus around for writes
system.mem_ctrls2.wrPerTurnAround::samples        19001                       # Writes before turning the bus around for reads
system.mem_ctrls2.wrPerTurnAround::mean      6.446976                       # Writes before turning the bus around for reads
system.mem_ctrls2.wrPerTurnAround::gmean     6.026788                       # Writes before turning the bus around for reads
system.mem_ctrls2.wrPerTurnAround::stdev     2.849329                       # Writes before turning the bus around for reads
system.mem_ctrls2.wrPerTurnAround::4-7          15061     79.26%     79.26% # Writes before turning the bus around for reads
system.mem_ctrls2.wrPerTurnAround::8-11          2380     12.53%     91.79% # Writes before turning the bus around for reads
system.mem_ctrls2.wrPerTurnAround::12-15          827      4.35%     96.14% # Writes before turning the bus around for reads
system.mem_ctrls2.wrPerTurnAround::16-19          733      3.86%    100.00% # Writes before turning the bus around for reads
system.mem_ctrls2.wrPerTurnAround::total        19001                       # Writes before turning the bus around for reads
system.mem_ctrls2.totQLat                 12778837128                       # Total ticks spent queuing
system.mem_ctrls2.totMemAccLat            16412380878                       # Total ticks spent from burst creation until serviced by the DRAM
system.mem_ctrls2.totBusLat                 968945000                       # Total ticks spent in databus transfers
system.mem_ctrls2.avgQLat                    65942.01                       # Average queueing delay per DRAM burst
system.mem_ctrls2.avgBusLat                   5000.00                       # Average bus latency per DRAM burst
system.mem_ctrls2.avgMemAccLat               84692.01                       # Average memory access latency per DRAM burst
system.mem_ctrls2.avgRdBW                      216.88                       # Average DRAM read bandwidth in MiByte/s
system.mem_ctrls2.avgWrBW                      137.10                       # Average achieved write bandwidth in MiByte/s
system.mem_ctrls2.avgRdBWSys                   216.91                       # Average system read bandwidth in MiByte/s
system.mem_ctrls2.avgWrBWSys                   137.10                       # Average system write bandwidth in MiByte/s
system.mem_ctrls2.peakBW                     12800.00                       # Theoretical peak bandwidth in MiByte/s
system.mem_ctrls2.busUtil                        2.77                       # Data bus utilization in percentage
system.mem_ctrls2.busUtilRead                    1.69                       # Data bus utilization in percentage for reads
system.mem_ctrls2.busUtilWrite                   1.07                       # Data bus utilization in percentage for writes
system.mem_ctrls2.avgRdQLen                      1.26                       # Average read queue length when enqueuing
system.mem_ctrls2.avgWrQLen                      2.91                       # Average write queue length when enqueuing
system.mem_ctrls2.readRowHits                  154932                       # Number of row buffer hits during reads
system.mem_ctrls2.writeRowHits                  88552                       # Number of row buffer hits during writes
system.mem_ctrls2.readRowHitRate                79.95                       # Row buffer hit rate for reads
system.mem_ctrls2.writeRowHitRate               72.29                       # Row buffer hit rate for writes
system.mem_ctrls2.avgGap                    180783.93                       # Average gap between requests
system.mem_ctrls2.pageHitRate                   76.98                       # Row buffer hit rate, read and write combined
system.mem_ctrls2.memoryStateTime::IDLE   11877334750                       # Time in different power states
system.mem_ctrls2.memoryStateTime::REF     1909440000                       # Time in different power states
system.mem_ctrls2.memoryStateTime::PRE_PDN            0                       # Time in different power states
system.mem_ctrls2.memoryStateTime::ACT    43395742500                       # Time in different power states
system.mem_ctrls2.memoryStateTime::ACT_PDN            0                       # Time in different power states
system.mem_ctrls2.actEnergy::0              277935840                       # Energy for activate commands per rank (pJ)
system.mem_ctrls2.actEnergy::1              272371680                       # Energy for activate commands per rank (pJ)
system.mem_ctrls2.preEnergy::0              151651500                       # Energy for precharge commands per rank (pJ)
system.mem_ctrls2.preEnergy::1              148615500                       # Energy for precharge commands per rank (pJ)
system.mem_ctrls2.readEnergy::0             754860600                       # Energy for read commands per rank (pJ)
system.mem_ctrls2.readEnergy::1             756607800                       # Energy for read commands per rank (pJ)
system.mem_ctrls2.writeEnergy::0            397366560                       # Energy for write commands per rank (pJ)
system.mem_ctrls2.writeEnergy::1            396362160                       # Energy for write commands per rank (pJ)
system.mem_ctrls2.refreshEnergy::0         3734864640                       # Energy for refresh commands per rank (pJ)
system.mem_ctrls2.refreshEnergy::1         3734864640                       # Energy for refresh commands per rank (pJ)
system.mem_ctrls2.actBackEnergy::0        22139712855                       # Energy for active background per rank (pJ)
system.mem_ctrls2.actBackEnergy::1        21642734700                       # Energy for active background per rank (pJ)
system.mem_ctrls2.preBackEnergy::0        14888701500                       # Energy for precharge background per rank (pJ)
system.mem_ctrls2.preBackEnergy::1        15324647250                       # Energy for precharge background per rank (pJ)
system.mem_ctrls2.totalEnergy::0          42345093495                       # Total energy per rank (pJ)
system.mem_ctrls2.totalEnergy::1          42276203730                       # Total energy per rank (pJ)
system.mem_ctrls2.averagePower::0          740.525348                       # Core power per rank (mW)
system.mem_ctrls2.averagePower::1          739.320613                       # Core power per rank (mW)
system.mem_ctrls3.bytes_read::ruby.dir_cntrl3     12383296                       # Number of bytes read from this memory
system.mem_ctrls3.bytes_read::total          12383296                       # Number of bytes read from this memory
system.mem_ctrls3.bytes_written::ruby.dir_cntrl3      7838208                       # Number of bytes written to this memory
system.mem_ctrls3.bytes_written::total        7838208                       # Number of bytes written to this memory
system.mem_ctrls3.num_reads::ruby.dir_cntrl3       193489                       # Number of read requests responded to by this memory
system.mem_ctrls3.num_reads::total             193489                       # Number of read requests responded to by this memory
system.mem_ctrls3.num_writes::ruby.dir_cntrl3       122472                       # Number of write requests responded to by this memory
system.mem_ctrls3.num_writes::total            122472                       # Number of write requests responded to by this memory
system.mem_ctrls3.bw_read::ruby.dir_cntrl3    216548693                       # Total read bandwidth from this memory (bytes/s)
system.mem_ctrls3.bw_read::total            216548693                       # Total read bandwidth from this memory (bytes/s)
system.mem_ctrls3.bw_write::ruby.dir_cntrl3    137068007                       # Write bandwidth from this memory (bytes/s)
system.mem_ctrls3.bw_write::total           137068007                       # Write bandwidth from this memory (bytes/s)
system.mem_ctrls3.bw_total::ruby.dir_cntrl3    353616700                       # Total bandwidth to/from this memory (bytes/s)
system.mem_ctrls3.bw_total::total           353616700                       # Total bandwidth to/from this memory (bytes/s)
system.mem_ctrls3.readReqs                     193489                       # Number of read requests accepted
system.mem_ctrls3.writeReqs                    122472                       # Number of write requests accepted
system.mem_ctrls3.readBursts                   193489                       # Number of DRAM read bursts, including those serviced by the write queue
system.mem_ctrls3.writeBursts                  122472                       # Number of DRAM write bursts, including those merged in the write queue
system.mem_ctrls3.bytesReadDRAM              12381952                       # Total number of bytes read from DRAM
system.mem_ctrls3.bytesReadWrQ                   1344                       # Total number of bytes read from write queue
system.mem_ctrls3.bytesWritten                7838144                       # Total number of bytes written to DRAM
system.mem_ctrls3.bytesReadSys               12383296                       # Total read bytes from the system interface side
system.mem_ctrls3.bytesWrittenSys             7838208                       # Total written bytes from the system interface side
system.mem_ctrls3.servicedByWrQ                    21                       # Number of DRAM read bursts serviced by the write queue
system.mem_ctrls3.mergedWrBursts                    0                       # Number of DRAM write bursts merged with an existing one
system.mem_ctrls3.neitherReadNorWriteReqs            0                       # Number of requests that are neither read nor write
system.mem_ctrls3.perBankRdBursts::0            11855                       # Per bank write bursts
system.mem_ctrls3.perBankRdBursts::1            11986                       # Per bank write bursts
system.mem_ctrls3.perBankRdBursts::2            11793                       # Per bank write bursts
system.mem_ctrls3.perBankRdBursts::3            12188                       # Per bank write bursts
system.mem_ctrls3.perBankRdBursts::4            11988                       # Per bank write bursts
system.mem_ctrls3.perBankRdBursts::5            12087                       # Per bank write bursts
system.mem_ctrls3.perBankRdBursts::6            12205                       # Per bank write bursts
system.mem_ctrls3.perBankRdBursts::7            12409                       # Per bank write bursts
system.mem_ctrls3.perBankRdBursts::8            12180                       # Per bank write bursts
system.mem_ctrls3.perBankRdBursts::9            12520                       # Per bank write bursts
system.mem_ctrls3.perBankRdBursts::10           12242                       # Per bank write bursts
system.mem_ctrls3.perBankRdBursts::11           12479                       # Per bank write bursts
system.mem_ctrls3.perBankRdBursts::12           12059                       # Per bank write bursts
system.mem_ctrls3.perBankRdBursts::13           11786                       # Per bank write bursts
system.mem_ctrls3.perBankRdBursts::14           11982                       # Per bank write bursts
system.mem_ctrls3.perBankRdBursts::15           11709                       # Per bank write bursts
system.mem_ctrls3.perBankWrBursts::0             7600                       # Per bank write bursts
system.mem_ctrls3.perBankWrBursts::1             7456                       # Per bank write bursts
system.mem_ctrls3.perBankWrBursts::2             7614                       # Per bank write bursts
system.mem_ctrls3.perBankWrBursts::3             7683                       # Per bank write bursts
system.mem_ctrls3.perBankWrBursts::4             7624                       # Per bank write bursts
system.mem_ctrls3.perBankWrBursts::5             7684                       # Per bank write bursts
system.mem_ctrls3.perBankWrBursts::6             7782                       # Per bank write bursts
system.mem_ctrls3.perBankWrBursts::7             7851                       # Per bank write bursts
system.mem_ctrls3.perBankWrBursts::8             7716                       # Per bank write bursts
system.mem_ctrls3.perBankWrBursts::9             7886                       # Per bank write bursts
system.mem_ctrls3.perBankWrBursts::10            7686                       # Per bank write bursts
system.mem_ctrls3.perBankWrBursts::11            7710                       # Per bank write bursts
system.mem_ctrls3.perBankWrBursts::12            7561                       # Per bank write bursts
system.mem_ctrls3.perBankWrBursts::13            7600                       # Per bank write bursts
system.mem_ctrls3.perBankWrBursts::14            7595                       # Per bank write bursts
system.mem_ctrls3.perBankWrBursts::15            7423                       # Per bank write bursts
system.mem_ctrls3.numRdRetry                      406                       # Number of times read queue was full causing retry
system.mem_ctrls3.numWrRetry                     3052                       # Number of times write queue was full causing retry
system.mem_ctrls3.totGap                  57183757000                       # Total gap between requests
system.mem_ctrls3.readPktSize::0                    0                       # Read request sizes (log2)
system.mem_ctrls3.readPktSize::1                    0                       # Read request sizes (log2)
system.mem_ctrls3.readPktSize::2                    0                       # Read request sizes (log2)
system.mem_ctrls3.readPktSize::3                    0                       # Read request sizes (log2)
system.mem_ctrls3.readPktSize::4                    0                       # Read request sizes (log2)
system.mem_ctrls3.readPktSize::5                    0                       # Read request sizes (log2)
system.mem_ctrls3.readPktSize::6               193489                       # Read request sizes (log2)
system.mem_ctrls3.writePktSize::0                   0                       # Write request sizes (log2)
system.mem_ctrls3.writePktSize::1                   0                       # Write request sizes (log2)
system.mem_ctrls3.writePktSize::2                   0                       # Write request sizes (log2)
system.mem_ctrls3.writePktSize::3                   0                       # Write request sizes (log2)
system.mem_ctrls3.writePktSize::4                   0                       # Write request sizes (log2)
system.mem_ctrls3.writePktSize::5                   0                       # Write request sizes (log2)
system.mem_ctrls3.writePktSize::6              122472                       # Write request sizes (log2)
system.mem_ctrls3.rdQLenPdf::0                  72578                       # What read queue length does an incoming req see
system.mem_ctrls3.rdQLenPdf::1                   9039                       # What read queue length does an incoming req see
system.mem_ctrls3.rdQLenPdf::2                   8815                       # What read queue length does an incoming req see
system.mem_ctrls3.rdQLenPdf::3                   8613                       # What read queue length does an incoming req see
system.mem_ctrls3.rdQLenPdf::4                   8776                       # What read queue length does an incoming req see
system.mem_ctrls3.rdQLenPdf::5                   8779                       # What read queue length does an incoming req see
system.mem_ctrls3.rdQLenPdf::6                   8440                       # What read queue length does an incoming req see
system.mem_ctrls3.rdQLenPdf::7                   7962                       # What read queue length does an incoming req see
system.mem_ctrls3.rdQLenPdf::8                   7586                       # What read queue length does an incoming req see
system.mem_ctrls3.rdQLenPdf::9                   7003                       # What read queue length does an incoming req see
system.mem_ctrls3.rdQLenPdf::10                  6237                       # What read queue length does an incoming req see
system.mem_ctrls3.rdQLenPdf::11                  5584                       # What read queue length does an incoming req see
system.mem_ctrls3.rdQLenPdf::12                  4918                       # What read queue length does an incoming req see
system.mem_ctrls3.rdQLenPdf::13                  4331                       # What read queue length does an incoming req see
system.mem_ctrls3.rdQLenPdf::14                  3775                       # What read queue length does an incoming req see
system.mem_ctrls3.rdQLenPdf::15                  3230                       # What read queue length does an incoming req see
system.mem_ctrls3.rdQLenPdf::16                  2834                       # What read queue length does an incoming req see
system.mem_ctrls3.rdQLenPdf::17                  2409                       # What read queue length does an incoming req see
system.mem_ctrls3.rdQLenPdf::18                  2122                       # What read queue length does an incoming req see
system.mem_ctrls3.rdQLenPdf::19                  1791                       # What read queue length does an incoming req see
system.mem_ctrls3.rdQLenPdf::20                  1525                       # What read queue length does an incoming req see
system.mem_ctrls3.rdQLenPdf::21                  1258                       # What read queue length does an incoming req see
system.mem_ctrls3.rdQLenPdf::22                  1075                       # What read queue length does an incoming req see
system.mem_ctrls3.rdQLenPdf::23                   879                       # What read queue length does an incoming req see
system.mem_ctrls3.rdQLenPdf::24                   816                       # What read queue length does an incoming req see
[...]
system.ruby.L2Cache_Controller.ISS.Mem_Data::total       288078                      
system.ruby.L2Cache_Controller.IS.Mem_Data |         448      3.32%      3.32% |         422      3.12%      6.44% |         414      3.07%      9.51% |         404      2.99%     12.50% |         410      3.04%     15.53% |         401      2.97%     18.50% |         414      3.07%     21.57% |         418      3.09%     24.66% |         407      3.01%     27.68% |         418      3.09%     30.77% |         443      3.28%     34.05% |         436      3.23%     37.28% |         450      3.33%     40.61% |         428      3.17%     43.78% |         449      3.32%     47.10% |         441      3.27%     50.37% |         450      3.33%     53.70% |         440      3.26%     56.96% |         434      3.21%     60.17% |         406      3.01%     63.18% |         386      2.86%     66.04% |         409      3.03%     69.07% |         404      2.99%     72.06% |         395      2.92%     74.98% |         427      3.16%     78.14% |         447      3.31%     81.45% |         437      3.24%     84.69% |         401      2.97%     87.66% |         415      3.07%     90.73% |         425      3.15%     93.88% |         425      3.15%     97.02% |         402      2.98%    100.00%
system.ruby.L2Cache_Controller.IS.Mem_Data::total        13506                      
system.ruby.L2Cache_Controller.IM.L1_GETX |           3    100.00%    100.00% |           0      0.00%    100.00% |           0      0.00%    100.00% |           0      0.00%    100.00% |           0      0.00%    100.00% |           0      0.00%    100.00% |           0      0.00%    100.00% |           0      0.00%    100.00% |           0      0.00%    100.00% |           0      0.00%    100.00% |           0      0.00%    100.00% |           0      0.00%    100.00% |           0      0.00%    100.00% |           0      0.00%    100.00% |           0      0.00%    100.00% |           0      0.00%    100.00% |           0      0.00%    100.00% |           0      0.00%    100.00% |           0      0.00%    100.00% |           0      0.00%    100.00% |           0      0.00%    100.00% |           0      0.00%    100.00% |           0      0.00%    100.00% |           0      0.00%    100.00% |           0      0.00%    100.00% |           0      0.00%    100.00% |           0      0.00%    100.00% |           0      0.00%    100.00% |           0      0.00%    100.00% |           0      0.00%    100.00% |           0      0.00%    100.00% |           0      0.00%    100.00%
system.ruby.L2Cache_Controller.IM.L1_GETX::total            3                      
system.ruby.L2Cache_Controller.IM.Mem_Data |       14970      3.14%      3.14% |       14887      3.12%      6.26% |       14893      3.12%      9.39% |       14893      3.12%     12.51% |       14885      3.12%     15.63% |       14893      3.12%     18.76% |       14896      3.12%     21.88% |       14889      3.12%     25.00% |       14897      3.12%     28.13% |       14902      3.13%     31.25% |       14883      3.12%     34.38% |       14903      3.13%     37.50% |       14894      3.12%     40.63% |       14895      3.12%     43.75% |       14891      3.12%     46.87% |       14887      3.12%     50.00% |       14907      3.13%     53.12% |       14900      3.13%     56.25% |       14899      3.13%     59.37% |       14902      3.13%     62.50% |       14916      3.13%     65.63% |       14925      3.13%     68.76% |       14888      3.12%     71.88% |       14899      3.13%     75.01% |       14910      3.13%     78.13% |       14901      3.13%     81.26% |       14905      3.13%     84.38% |       14895      3.12%     87.51% |       14889      3.12%     90.63% |       14886      3.12%     93.75% |       14897      3.12%     96.88% |       14883      3.12%    100.00%
system.ruby.L2Cache_Controller.IM.Mem_Data::total       476760                      
system.ruby.L2Cache_Controller.SS_MB.Exclusive_Unblock |           3      6.12%      6.12% |           6     12.24%     18.37% |           2      4.08%     22.45% |           3      6.12%     28.57% |           0      0.00%     28.57% |           0      0.00%     28.57% |           0      0.00%     28.57% |           0      0.00%     28.57% |           1      2.04%     30.61% |           0      0.00%     30.61% |           0      0.00%     30.61% |           1      2.04%     32.65% |           4      8.16%     40.82% |           0      0.00%     40.82% |           2      4.08%     44.90% |           0      0.00%     44.90% |           1      2.04%     46.94% |           2      4.08%     51.02% |          13     26.53%     77.55% |           3      6.12%     83.67% |           0      0.00%     83.67% |           0      0.00%     83.67% |           0      0.00%     83.67% |           0      0.00%     83.67% |           1      2.04%     85.71% |           0      0.00%     85.71% |           3      6.12%     91.84% |           4      8.16%    100.00% |           0      0.00%    100.00% |           0      0.00%    100.00% |           0      0.00%    100.00% |           0      0.00%    100.00%
system.ruby.L2Cache_Controller.SS_MB.Exclusive_Unblock::total           49                      
system.ruby.L2Cache_Controller.MT_MB.Exclusive_Unblock |       75886      7.22%      7.22% |       32860      3.13%     10.35% |       29493      2.81%     13.16% |       32386      3.08%     16.24% |       29777      2.83%     19.07% |       29675      2.82%     21.90% |       29078      2.77%     24.66% |       29694      2.83%     27.49% |       30388      2.89%     30.38% |       29990      2.85%     33.24% |       32534      3.10%     36.33% |       30865      2.94%     39.27% |       30497      2.90%     42.17% |       30302      2.88%     45.06% |       29593      2.82%     47.87% |       30191      2.87%     50.74% |       31496      3.00%     53.74% |       30307      2.88%     56.63% |       30896      2.94%     59.57% |       31631      3.01%     62.58% |       32121      3.06%     65.63% |       37023      3.52%     69.16% |       31250      2.97%     72.13% |       31246      2.97%     75.11% |       31237      2.97%     78.08% |       31235      2.97%     81.05% |       31159      2.97%     84.02% |       30870      2.94%     86.95% |       32679      3.11%     90.06% |       32151      3.06%     93.12% |       34124      3.25%     96.37% |       38130      3.63%    100.00%
system.ruby.L2Cache_Controller.MT_MB.Exclusive_Unblock::total      1050764                      
system.ruby.L2Cache_Controller.MT_IIB.WB_Data |           1      1.28%      1.28% |           2      2.56%      3.85% |           1      1.28%      5.13% |           3      3.85%      8.97% |           3      3.85%     12.82% |           3      3.85%     16.67% |           4      5.13%     21.79% |           3      3.85%     25.64% |           5      6.41%     32.05% |           3      3.85%     35.90% |           2      2.56%     38.46% |           1      1.28%     39.74% |           3      3.85%     43.59% |           2      2.56%     46.15% |           4      5.13%     51.28% |           3      3.85%     55.13% |           3      3.85%     58.97% |           1      1.28%     60.26% |           2      2.56%     62.82% |           0      0.00%     62.82% |           1      1.28%     64.10% |           0      0.00%     64.10% |           1      1.28%     65.38% |           2      2.56%     67.95% |           3      3.85%     71.79% |           5      6.41%     78.21% |           4      5.13%     83.33% |           5      6.41%     89.74% |           2      2.56%     92.31% |           2      2.56%     94.87% |           2      2.56%     97.44% |           2      2.56%    100.00%
system.ruby.L2Cache_Controller.MT_IIB.WB_Data::total           78                      
system.ruby.L2Cache_Controller.MT_IIB.WB_Data_clean |          64     55.65%     55.65% |           0      0.00%     55.65% |           0      0.00%     55.65% |          19     16.52%     72.17% |           0      0.00%     72.17% |           0      0.00%     72.17% |           0      0.00%     72.17% |           0      0.00%     72.17% |           0      0.00%     72.17% |           0      0.00%     72.17% |           0      0.00%     72.17% |           0      0.00%     72.17% |           0      0.00%     72.17% |           0      0.00%     72.17% |           0      0.00%     72.17% |           0      0.00%     72.17% |          14     12.17%     84.35% |           0      0.00%     84.35% |           0      0.00%     84.35% |          16     13.91%     98.26% |           0      0.00%     98.26% |           0      0.00%     98.26% |           0      0.00%     98.26% |           0      0.00%     98.26% |           0      0.00%     98.26% |           0      0.00%     98.26% |           0      0.00%     98.26% |           2      1.74%    100.00% |           0      0.00%    100.00% |           0      0.00%    100.00% |           0      0.00%    100.00% |           0      0.00%    100.00%
system.ruby.L2Cache_Controller.MT_IIB.WB_Data_clean::total          115                      
system.ruby.L2Cache_Controller.MT_IIB.Unblock |           1     25.00%     25.00% |           0      0.00%     25.00% |           0      0.00%     25.00% |           0      0.00%     25.00% |           0      0.00%     25.00% |           0      0.00%     25.00% |           0      0.00%     25.00% |           0      0.00%     25.00% |           0      0.00%     25.00% |           0      0.00%     25.00% |           0      0.00%     25.00% |           1     25.00%     50.00% |           0      0.00%     50.00% |           1     25.00%     75.00% |           0      0.00%     75.00% |           0      0.00%     75.00% |           0      0.00%     75.00% |           0      0.00%     75.00% |           0      0.00%     75.00% |           0      0.00%     75.00% |           0      0.00%     75.00% |           0      0.00%     75.00% |           0      0.00%     75.00% |           0      0.00%     75.00% |           0      0.00%     75.00% |           0      0.00%     75.00% |           0      0.00%     75.00% |           0      0.00%     75.00% |           1     25.00%    100.00% |           0      0.00%    100.00% |           0      0.00%    100.00% |           0      0.00%    100.00%
system.ruby.L2Cache_Controller.MT_IIB.Unblock::total            4                      
system.ruby.L2Cache_Controller.MT_IB.WB_Data |           0      0.00%      0.00% |           0      0.00%      0.00% |           0      0.00%      0.00% |           0      0.00%      0.00% |           0      0.00%      0.00% |           0      0.00%      0.00% |           0      0.00%      0.00% |           0      0.00%      0.00% |           0      0.00%      0.00% |           0      0.00%      0.00% |           0      0.00%      0.00% |           1     33.33%     33.33% |           0      0.00%     33.33% |           1     33.33%     66.67% |           0      0.00%     66.67% |           0      0.00%     66.67% |           0      0.00%     66.67% |           0      0.00%     66.67% |           0      0.00%     66.67% |           0      0.00%     66.67% |           0      0.00%     66.67% |           0      0.00%     66.67% |           0      0.00%     66.67% |           0      0.00%     66.67% |           0      0.00%     66.67% |           0      0.00%     66.67% |           0      0.00%     66.67% |           0      0.00%     66.67% |           1     33.33%    100.00% |           0      0.00%    100.00% |           0      0.00%    100.00% |           0      0.00%    100.00%
system.ruby.L2Cache_Controller.MT_IB.WB_Data::total            3                      
system.ruby.L2Cache_Controller.MT_IB.WB_Data_clean |           1    100.00%    100.00% |           0      0.00%    100.00% |           0      0.00%    100.00% |           0      0.00%    100.00% |           0      0.00%    100.00% |           0      0.00%    100.00% |           0      0.00%    100.00% |           0      0.00%    100.00% |           0      0.00%    100.00% |           0      0.00%    100.00% |           0      0.00%    100.00% |           0      0.00%    100.00% |           0      0.00%    100.00% |           0      0.00%    100.00% |           0      0.00%    100.00% |           0      0.00%    100.00% |           0      0.00%    100.00% |           0      0.00%    100.00% |           0      0.00%    100.00% |           0      0.00%    100.00% |           0      0.00%    100.00% |           0      0.00%    100.00% |           0      0.00%    100.00% |           0      0.00%    100.00% |           0      0.00%    100.00% |           0      0.00%    100.00% |           0      0.00%    100.00% |           0      0.00%    100.00% |           0      0.00%    100.00% |           0      0.00%    100.00% |           0      0.00%    100.00% |           0      0.00%    100.00%
system.ruby.L2Cache_Controller.MT_IB.WB_Data_clean::total            1                      
system.ruby.L2Cache_Controller.MT_SB.Unblock |          65     33.68%     33.68% |           2      1.04%     34.72% |           1      0.52%     35.23% |          22     11.40%     46.63% |           3      1.55%     48.19% |           3      1.55%     49.74% |           4      2.07%     51.81% |           3      1.55%     53.37% |           5      2.59%     55.96% |           3      1.55%     57.51% |           2      1.04%     58.55% |           1      0.52%     59.07% |           3      1.55%     60.62% |           2      1.04%     61.66% |           4      2.07%     63.73% |           3      1.55%     65.28% |          17      8.81%     74.09% |           1      0.52%     74.61% |           2      1.04%     75.65% |          16      8.29%     83.94% |           1      0.52%     84.46% |           0      0.00%     84.46% |           1      0.52%     84.97% |           2      1.04%     86.01% |           3      1.55%     87.56% |           5      2.59%     90.16% |           4      2.07%     92.23% |           7      3.63%     95.85% |           2      1.04%     96.89% |           2      1.04%     97.93% |           2      1.04%     98.96% |           2      1.04%    100.00%
system.ruby.L2Cache_Controller.MT_SB.Unblock::total          193                      
system.ruby.SimicsNetworkPortInterface_Controller.MessageSend |       52908     16.58%     16.58% |      159585     50.00%     66.58% |       25889      8.11%     74.69% |       28146      8.82%     83.51% |       25348      7.94%     91.45% |       27294      8.55%    100.00% |           0      0.00%    100.00% |           0      0.00%    100.00% |           0      0.00%    100.00% |           0      0.00%    100.00% |           0      0.00%    100.00% |           0      0.00%    100.00% |           0      0.00%    100.00% |           0      0.00%    100.00% |           0      0.00%    100.00% |           0      0.00%    100.00% |           0      0.00%    100.00% |           0      0.00%    100.00% |           0      0.00%    100.00% |           0      0.00%    100.00% |           0      0.00%    100.00% |           0      0.00%    100.00% |           0      0.00%    100.00% |           0      0.00%    100.00% |           0      0.00%    100.00% |           0      0.00%    100.00% |           0      0.00%    100.00% |           0      0.00%    100.00% |           0      0.00%    100.00% |           0      0.00%    100.00% |           0      0.00%    100.00% |           0      0.00%    100.00%
system.ruby.SimicsNetworkPortInterface_Controller.MessageSend::total       319170                      
system.ruby.SimicsNetworkPortInterface_Controller.MessageRecv |       52908     16.58%     16.58% |      159585     50.00%     66.58% |       25889      8.11%     74.69% |       28146      8.82%     83.51% |       25348      7.94%     91.45% |       27294      8.55%    100.00% |           0      0.00%    100.00% |           0      0.00%    100.00% |           0      0.00%    100.00% |           0      0.00%    100.00% |           0      0.00%    100.00% |           0      0.00%    100.00% |           0      0.00%    100.00% |           0      0.00%    100.00% |           0      0.00%    100.00% |           0      0.00%    100.00% |           0      0.00%    100.00% |           0      0.00%    100.00% |           0      0.00%    100.00% |           0      0.00%    100.00% |           0      0.00%    100.00% |           0      0.00%    100.00% |           0      0.00%    100.00% |           0      0.00%    100.00% |           0      0.00%    100.00% |           0      0.00%    100.00% |           0      0.00%    100.00% |           0      0.00%    100.00% |           0      0.00%    100.00% |           0      0.00%    100.00% |           0      0.00%    100.00% |           0      0.00%    100.00%
system.ruby.SimicsNetworkPortInterface_Controller.MessageRecv::total       319170                      
system.ruby.SimicsNetworkPortInterface_Controller.A.MessageSend |       52908     16.58%     16.58% |      159585     50.00%     66.58% |       25889      8.11%     74.69% |       28146      8.82%     83.51% |       25348      7.94%     91.45% |       27294      8.55%    100.00% |           0      0.00%    100.00% |           0      0.00%    100.00% |           0      0.00%    100.00% |           0      0.00%    100.00% |           0      0.00%    100.00% |           0      0.00%    100.00% |           0      0.00%    100.00% |           0      0.00%    100.00% |           0      0.00%    100.00% |           0      0.00%    100.00% |           0      0.00%    100.00% |           0      0.00%    100.00% |           0      0.00%    100.00% |           0      0.00%    100.00% |           0      0.00%    100.00% |           0      0.00%    100.00% |           0      0.00%    100.00% |           0      0.00%    100.00% |           0      0.00%    100.00% |           0      0.00%    100.00% |           0      0.00%    100.00% |           0      0.00%    100.00% |           0      0.00%    100.00% |           0      0.00%    100.00% |           0      0.00%    100.00% |           0      0.00%    100.00%
system.ruby.SimicsNetworkPortInterface_Controller.A.MessageSend::total       319170                      
system.ruby.SimicsNetworkPortInterface_Controller.A.MessageRecv |       52908     16.58%     16.58% |      159585     50.00%     66.58% |       25889      8.11%     74.69% |       28146      8.82%     83.51% |       25348      7.94%     91.45% |       27294      8.55%    100.00% |           0      0.00%    100.00% |           0      0.00%    100.00% |           0      0.00%    100.00% |           0      0.00%    100.00% |           0      0.00%    100.00% |           0      0.00%    100.00% |           0      0.00%    100.00% |           0      0.00%    100.00% |           0      0.00%    100.00% |           0      0.00%    100.00% |           0      0.00%    100.00% |           0      0.00%    100.00% |           0      0.00%    100.00% |           0      0.00%    100.00% |           0      0.00%    100.00% |           0      0.00%    100.00% |           0      0.00%    100.00% |           0      0.00%    100.00% |           0      0.00%    100.00% |           0      0.00%    100.00% |           0      0.00%    100.00% |           0      0.00%    100.00% |           0      0.00%    100.00% |           0      0.00%    100.00% |           0      0.00%    100.00% |           0      0.00%    100.00%
system.ruby.SimicsNetworkPortInterface_Controller.A.MessageRecv::total       319170                      
system.switch_cpus.kern.inst.arm                    0                       # number of arm instructions executed
system.switch_cpus.kern.inst.quiesce                0                       # number of quiesce instructions executed

---------- End Simulation Statistics   ----------
