
---------- Begin Simulation Statistics ----------
sim_seconds                                  0.059694                       # Number of seconds simulated
sim_ticks                                 59694388500                       # Number of ticks simulated
final_tick                               5235862467000                       # Number of ticks from beginning of simulation (restored from checkpoints and never reset)
sim_freq                                 1000000000000                       # Frequency of simulated ticks
host_inst_rate                                  45465                       # Simulator instruction rate (inst/s)
host_op_rate                                    80905                       # Simulator op (including micro ops) rate (op/s)
host_tick_rate                               68422060                       # Simulator tick rate (ticks/s)
host_mem_usage                                4819684                       # Number of bytes of host memory used
host_seconds                                   872.44                       # Real time elapsed on the host
sim_insts                                    39665521                       # Number of instructions simulated
sim_ops                                      70585027                       # Number of ops (including micro ops) simulated
system.voltage_domain.voltage                       1                       # Voltage in Volts
system.clk_domain.clock                           500                       # Clock period in ticks
system.mem_ctrls0.bytes_read::ruby.dir_cntrl0     14034176                       # Number of bytes read from this memory
system.mem_ctrls0.bytes_read::total          14034176                       # Number of bytes read from this memory
system.mem_ctrls0.bytes_written::ruby.dir_cntrl0      4007744                       # Number of bytes written to this memory
system.mem_ctrls0.bytes_written::total        4007744                       # Number of bytes written to this memory
system.mem_ctrls0.num_reads::ruby.dir_cntrl0       219284                       # Number of read requests responded to by this memory
system.mem_ctrls0.num_reads::total             219284                       # Number of read requests responded to by this memory
system.mem_ctrls0.num_writes::ruby.dir_cntrl0        62621                       # Number of write requests responded to by this memory
system.mem_ctrls0.num_writes::total             62621                       # Number of write requests responded to by this memory
system.mem_ctrls0.bw_read::ruby.dir_cntrl0    235100423                       # Total read bandwidth from this memory (bytes/s)
system.mem_ctrls0.bw_read::total            235100423                       # Total read bandwidth from this memory (bytes/s)
system.mem_ctrls0.bw_write::ruby.dir_cntrl0     67137701                       # Write bandwidth from this memory (bytes/s)
system.mem_ctrls0.bw_write::total            67137701                       # Write bandwidth from this memory (bytes/s)
system.mem_ctrls0.bw_total::ruby.dir_cntrl0    302238124                       # Total bandwidth to/from this memory (bytes/s)
system.mem_ctrls0.bw_total::total           302238124                       # Total bandwidth to/from this memory (bytes/s)
system.mem_ctrls0.readReqs                     219284                       # Number of read requests accepted
system.mem_ctrls0.writeReqs                     62621                       # Number of write requests accepted
system.mem_ctrls0.readBursts                   219284                       # Number of DRAM read bursts, including those serviced by the write queue
system.mem_ctrls0.writeBursts                   62621                       # Number of DRAM write bursts, including those merged in the write queue
system.mem_ctrls0.bytesReadDRAM              14032640                       # Total number of bytes read from DRAM
system.mem_ctrls0.bytesReadWrQ                   1536                       # Total number of bytes read from write queue
system.mem_ctrls0.bytesWritten                4007680                       # Total number of bytes written to DRAM
system.mem_ctrls0.bytesReadSys               14034176                       # Total read bytes from the system interface side
system.mem_ctrls0.bytesWrittenSys             4007744                       # Total written bytes from the system interface side
system.mem_ctrls0.servicedByWrQ                    24                       # Number of DRAM read bursts serviced by the write queue
system.mem_ctrls0.mergedWrBursts                    0                       # Number of DRAM write bursts merged with an existing one
system.mem_ctrls0.neitherReadNorWriteReqs            0                       # Number of requests that are neither read nor write
system.mem_ctrls0.perBankRdBursts::0            13462                       # Per bank write bursts
system.mem_ctrls0.perBankRdBursts::1            13998                       # Per bank write bursts
system.mem_ctrls0.perBankRdBursts::2            13664                       # Per bank write bursts
system.mem_ctrls0.perBankRdBursts::3            14063                       # Per bank write bursts
system.mem_ctrls0.perBankRdBursts::4            13702                       # Per bank write bursts
system.mem_ctrls0.perBankRdBursts::5            14280                       # Per bank write bursts
system.mem_ctrls0.perBankRdBursts::6            13738                       # Per bank write bursts
system.mem_ctrls0.perBankRdBursts::7            13669                       # Per bank write bursts
system.mem_ctrls0.perBankRdBursts::8            13564                       # Per bank write bursts
system.mem_ctrls0.perBankRdBursts::9            13898                       # Per bank write bursts
system.mem_ctrls0.perBankRdBursts::10           13605                       # Per bank write bursts
system.mem_ctrls0.perBankRdBursts::11           13837                       # Per bank write bursts
system.mem_ctrls0.perBankRdBursts::12           13385                       # Per bank write bursts
system.mem_ctrls0.perBankRdBursts::13           13265                       # Per bank write bursts
system.mem_ctrls0.perBankRdBursts::14           13559                       # Per bank write bursts
system.mem_ctrls0.perBankRdBursts::15           13571                       # Per bank write bursts
system.mem_ctrls0.perBankWrBursts::0             3845                       # Per bank write bursts
system.mem_ctrls0.perBankWrBursts::1             3927                       # Per bank write bursts
system.mem_ctrls0.perBankWrBursts::2             3906                       # Per bank write bursts
system.mem_ctrls0.perBankWrBursts::3             4132                       # Per bank write bursts
system.mem_ctrls0.perBankWrBursts::4             3927                       # Per bank write bursts
system.mem_ctrls0.perBankWrBursts::5             4078                       # Per bank write bursts
system.mem_ctrls0.perBankWrBursts::6             3983                       # Per bank write bursts
system.mem_ctrls0.perBankWrBursts::7             3947                       # Per bank write bursts
system.mem_ctrls0.perBankWrBursts::8             3818                       # Per bank write bursts
system.mem_ctrls0.perBankWrBursts::9             4072                       # Per bank write bursts
system.mem_ctrls0.perBankWrBursts::10            3841                       # Per bank write bursts
system.mem_ctrls0.perBankWrBursts::11            3777                       # Per bank write bursts
system.mem_ctrls0.perBankWrBursts::12            3724                       # Per bank write bursts
system.mem_ctrls0.perBankWrBursts::13            3761                       # Per bank write bursts
system.mem_ctrls0.perBankWrBursts::14            4009                       # Per bank write bursts
system.mem_ctrls0.perBankWrBursts::15            3873                       # Per bank write bursts
system.mem_ctrls0.numRdRetry                      859                       # Number of times read queue was full causing retry
system.mem_ctrls0.numWrRetry                      367                       # Number of times write queue was full causing retry
system.mem_ctrls0.totGap                  59693896500                       # Total gap between requests
system.mem_ctrls0.readPktSize::0                    0                       # Read request sizes (log2)
system.mem_ctrls0.readPktSize::1                    0                       # Read request sizes (log2)
system.mem_ctrls0.readPktSize::2                    0                       # Read request sizes (log2)
system.mem_ctrls0.readPktSize::3                    0                       # Read request sizes (log2)
system.mem_ctrls0.readPktSize::4                    0                       # Read request sizes (log2)
system.mem_ctrls0.readPktSize::5                    0                       # Read request sizes (log2)
system.mem_ctrls0.readPktSize::6               219284                       # Read request sizes (log2)
system.mem_ctrls0.writePktSize::0                   0                       # Write request sizes (log2)
system.mem_ctrls0.writePktSize::1                   0                       # Write request sizes (log2)
system.mem_ctrls0.writePktSize::2                   0                       # Write request sizes (log2)
system.mem_ctrls0.writePktSize::3                   0                       # Write request sizes (log2)
system.mem_ctrls0.writePktSize::4                   0                       # Write request sizes (log2)
system.mem_ctrls0.writePktSize::5                   0                       # Write request sizes (log2)
system.mem_ctrls0.writePktSize::6               62621                       # Write request sizes (log2)
system.mem_ctrls0.rdQLenPdf::0                 160462                       # What read queue length does an incoming req see
system.mem_ctrls0.rdQLenPdf::1                  42609                       # What read queue length does an incoming req see
system.mem_ctrls0.rdQLenPdf::2                  11272                       # What read queue length does an incoming req see
system.mem_ctrls0.rdQLenPdf::3                   2511                       # What read queue length does an incoming req see
system.mem_ctrls0.rdQLenPdf::4                    582                       # What read queue length does an incoming req see
system.mem_ctrls0.rdQLenPdf::5                    183                       # What read queue length does an incoming req see
system.mem_ctrls0.rdQLenPdf::6                     92                       # What read queue length does an incoming req see
system.mem_ctrls0.rdQLenPdf::7                     60                       # What read queue length does an incoming req see
system.mem_ctrls0.rdQLenPdf::8                     52                       # What read queue length does an incoming req see
system.mem_ctrls0.rdQLenPdf::9                     34                       # What read queue length does an incoming req see
system.mem_ctrls0.rdQLenPdf::10                    29                       # What read queue length does an incoming req see
system.mem_ctrls0.rdQLenPdf::11                    43                       # What read queue length does an incoming req see
system.mem_ctrls0.rdQLenPdf::12                    25                       # What read queue length does an incoming req see
system.mem_ctrls0.rdQLenPdf::13                    17                       # What read queue length does an incoming req see
system.mem_ctrls0.rdQLenPdf::14                    20                       # What read queue length does an incoming req see
system.mem_ctrls0.rdQLenPdf::15                    21                       # What read queue length does an incoming req see
system.mem_ctrls0.rdQLenPdf::16                    18                       # What read queue length does an incoming req see
system.mem_ctrls0.rdQLenPdf::17                    25                       # What read queue length does an incoming req see
system.mem_ctrls0.rdQLenPdf::18                    28                       # What read queue length does an incoming req see
system.mem_ctrls0.rdQLenPdf::19                    32                       # What read queue length does an incoming req see
system.mem_ctrls0.rdQLenPdf::20                    16                       # What read queue length does an incoming req see
system.mem_ctrls0.rdQLenPdf::21                    14                       # What read queue length does an incoming req see
system.mem_ctrls0.rdQLenPdf::22                    13                       # What read queue length does an incoming req see
system.mem_ctrls0.rdQLenPdf::23                    15                       # What read queue length does an incoming req see
system.mem_ctrls0.rdQLenPdf::24                    12                       # What read queue length does an incoming req see
system.mem_ctrls0.rdQLenPdf::25                    14                       # What read queue length does an incoming req see
system.mem_ctrls0.rdQLenPdf::26                    19                       # What read queue length does an incoming req see
system.mem_ctrls0.rdQLenPdf::27                    16                       # What read queue length does an incoming req see
system.mem_ctrls0.rdQLenPdf::28                    12                       # What read queue length does an incoming req see
system.mem_ctrls0.rdQLenPdf::29                    17                       # What read queue length does an incoming req see
system.mem_ctrls0.rdQLenPdf::30                    41                       # What read queue length does an incoming req see
system.mem_ctrls0.rdQLenPdf::31                   956                       # What read queue length does an incoming req see
system.mem_ctrls0.wrQLenPdf::0                  12196                       # What write queue length does an incoming req see
system.mem_ctrls0.wrQLenPdf::1                  12390                       # What write queue length does an incoming req see
system.mem_ctrls0.wrQLenPdf::2                  12383                       # What write queue length does an incoming req see
system.mem_ctrls0.wrQLenPdf::3                  12350                       # What write queue length does an incoming req see
system.mem_ctrls0.wrQLenPdf::4                  12287                       # What write queue length does an incoming req see
system.mem_ctrls0.wrQLenPdf::5                    234                       # What write queue length does an incoming req see
system.mem_ctrls0.wrQLenPdf::6                    159                       # What write queue length does an incoming req see
system.mem_ctrls0.wrQLenPdf::7                    622                       # What write queue length does an incoming req see
system.mem_ctrls0.bytesPerActivate::samples        85419                       # Bytes accessed per row activation
system.mem_ctrls0.bytesPerActivate::mean   211.190485                       # Bytes accessed per row activation
system.mem_ctrls0.bytesPerActivate::gmean   135.888523                       # Bytes accessed per row activation
system.mem_ctrls0.bytesPerActivate::stdev   240.027000                       # Bytes accessed per row activation
system.mem_ctrls0.bytesPerActivate::0-127        41507     48.59%     48.59% # Bytes accessed per row activation
system.mem_ctrls0.bytesPerActivate::128-255        17703     20.72%     69.32% # Bytes accessed per row activation
system.mem_ctrls0.bytesPerActivate::256-383        14875     17.41%     86.73% # Bytes accessed per row activation
system.mem_ctrls0.bytesPerActivate::384-511         2586      3.03%     89.76% # Bytes accessed per row activation
system.mem_ctrls0.bytesPerActivate::512-639         1831      2.14%     91.90% # Bytes accessed per row activation
system.mem_ctrls0.bytesPerActivate::640-767         1278      1.50%     93.40% # Bytes accessed per row activation
system.mem_ctrls0.bytesPerActivate::768-895         1130      1.32%     94.72% # Bytes accessed per row activation
system.mem_ctrls0.bytesPerActivate::896-1023          861      1.01%     95.73% # Bytes accessed per row activation
system.mem_ctrls0.bytesPerActivate::1024-1151         3648      4.27%    100.00% # Bytes accessed per row activation
system.mem_ctrls0.bytesPerActivate::total        85419                       # Bytes accessed per row activation
system.mem_ctrls0.rdPerTurnAround::samples        12229                       # Reads before turning the bus around for writes
system.mem_ctrls0.rdPerTurnAround::mean     17.773080                       # Reads before turning the bus around for writes
system.mem_ctrls0.rdPerTurnAround::stdev    74.275267                       # Reads before turning the bus around for writes
system.mem_ctrls0.rdPerTurnAround::0-127        11857     96.96%     96.96% # Reads before turning the bus around for writes
system.mem_ctrls0.rdPerTurnAround::128-255          186      1.52%     98.48% # Reads before turning the bus around for writes
system.mem_ctrls0.rdPerTurnAround::256-383           98      0.80%     99.28% # Reads before turning the bus around for writes
system.mem_ctrls0.rdPerTurnAround::384-511           43      0.35%     99.63% # Reads before turning the bus around for writes
system.mem_ctrls0.rdPerTurnAround::512-639           24      0.20%     99.83% # Reads before turning the bus around for writes
system.mem_ctrls0.rdPerTurnAround::640-767            9      0.07%     99.90% # Reads before turning the bus around for writes
system.mem_ctrls0.rdPerTurnAround::768-895            1      0.01%     99.91% # Reads before turning the bus around for writes
system.mem_ctrls0.rdPerTurnAround::896-1023            5      0.04%     99.95% # Reads before turning the bus around for writes
system.mem_ctrls0.rdPerTurnAround::1152-1279            2      0.02%     99.97% # Reads before turning the bus around for writes
system.mem_ctrls0.rdPerTurnAround::1408-1535            1      0.01%     99.98% # Reads before turning the bus around for writes
system.mem_ctrls0.rdPerTurnAround::1536-1663            1      0.01%     99.98% # Reads before turning the bus around for writes
system.mem_ctrls0.rdPerTurnAround::1792-1919            1      0.01%     99.99% # Reads before turning the bus around for writes
system.mem_ctrls0.rdPerTurnAround::3968-4095            1      0.01%    100.00% # Reads before turning the bus around for writes
system.mem_ctrls0.rdPerTurnAround::total        12229                       # Reads before turning the bus around for writes
system.mem_ctrls0.wrPerTurnAround::samples        12229                       # Writes before turning the bus around for reads
system.mem_ctrls0.wrPerTurnAround::mean      5.120615                       # Writes before turning the bus around for reads
system.mem_ctrls0.wrPerTurnAround::gmean     5.081586                       # Writes before turning the bus around for reads
system.mem_ctrls0.wrPerTurnAround::stdev     0.907349                       # Writes before turning the bus around for reads
system.mem_ctrls0.wrPerTurnAround::4-7          12107     99.00%     99.00% # Writes before turning the bus around for reads
system.mem_ctrls0.wrPerTurnAround::8-11            41      0.34%     99.34% # Writes before turning the bus around for reads
system.mem_ctrls0.wrPerTurnAround::12-15           21      0.17%     99.51% # Writes before turning the bus around for reads
system.mem_ctrls0.wrPerTurnAround::16-19           60      0.49%    100.00% # Writes before turning the bus around for reads
system.mem_ctrls0.wrPerTurnAround::total        12229                       # Writes before turning the bus around for reads
system.mem_ctrls0.totQLat                  3082531558                       # Total ticks spent queuing
system.mem_ctrls0.totMemAccLat             7193656558                       # Total ticks spent from burst creation until serviced by the DRAM
system.mem_ctrls0.totBusLat                1096300000                       # Total ticks spent in databus transfers
system.mem_ctrls0.avgQLat                    14058.80                       # Average queueing delay per DRAM burst
system.mem_ctrls0.avgBusLat                   5000.00                       # Average bus latency per DRAM burst
system.mem_ctrls0.avgMemAccLat               32808.80                       # Average memory access latency per DRAM burst
system.mem_ctrls0.avgRdBW                      235.07                       # Average DRAM read bandwidth in MiByte/s
system.mem_ctrls0.avgWrBW                       67.14                       # Average achieved write bandwidth in MiByte/s
system.mem_ctrls0.avgRdBWSys                   235.10                       # Average system read bandwidth in MiByte/s
system.mem_ctrls0.avgWrBWSys                    67.14                       # Average system write bandwidth in MiByte/s
system.mem_ctrls0.peakBW                     12800.00                       # Theoretical peak bandwidth in MiByte/s
system.mem_ctrls0.busUtil                        2.36                       # Data bus utilization in percentage
system.mem_ctrls0.busUtilRead                    1.84                       # Data bus utilization in percentage for reads
system.mem_ctrls0.busUtilWrite                   0.52                       # Data bus utilization in percentage for writes
system.mem_ctrls0.avgRdQLen                      1.12                       # Average read queue length when enqueuing
system.mem_ctrls0.avgWrQLen                      2.89                       # Average write queue length when enqueuing
system.mem_ctrls0.readRowHits                  157889                       # Number of row buffer hits during reads
system.mem_ctrls0.writeRowHits                  38565                       # Number of row buffer hits during writes
system.mem_ctrls0.readRowHitRate                72.01                       # Row buffer hit rate for reads
system.mem_ctrls0.writeRowHitRate               61.58                       # Row buffer hit rate for writes
system.mem_ctrls0.avgGap                    211751.82                       # Average gap between requests
system.mem_ctrls0.pageHitRate                   69.69                       # Row buffer hit rate, read and write combined
system.mem_ctrls0.memoryStateTime::IDLE   10789148750                       # Time in different power states
system.mem_ctrls0.memoryStateTime::REF     1993160000                       # Time in different power states
system.mem_ctrls0.memoryStateTime::PRE_PDN            0                       # Time in different power states
system.mem_ctrls0.memoryStateTime::ACT    46907357500                       # Time in different power states
system.mem_ctrls0.memoryStateTime::ACT_PDN            0                       # Time in different power states
system.mem_ctrls0.actEnergy::0              326229120                       # Energy for activate commands per rank (pJ)
system.mem_ctrls0.actEnergy::1              319508280                       # Energy for activate commands per rank (pJ)
system.mem_ctrls0.preEnergy::0              178002000                       # Energy for precharge commands per rank (pJ)
system.mem_ctrls0.preEnergy::1              174334875                       # Energy for precharge commands per rank (pJ)
system.mem_ctrls0.readEnergy::0             862422600                       # Energy for read commands per rank (pJ)
system.mem_ctrls0.readEnergy::1             847688400                       # Energy for read commands per rank (pJ)
system.mem_ctrls0.writeEnergy::0            205707600                       # Energy for write commands per rank (pJ)
system.mem_ctrls0.writeEnergy::1            200070000                       # Energy for write commands per rank (pJ)
system.mem_ctrls0.refreshEnergy::0         3898620960                       # Energy for refresh commands per rank (pJ)
system.mem_ctrls0.refreshEnergy::1         3898620960                       # Energy for refresh commands per rank (pJ)
system.mem_ctrls0.actBackEnergy::0        25587314820                       # Energy for active background per rank (pJ)
system.mem_ctrls0.actBackEnergy::1        24914552085                       # Energy for active background per rank (pJ)
system.mem_ctrls0.preBackEnergy::0        13368778500                       # Energy for precharge background per rank (pJ)
system.mem_ctrls0.preBackEnergy::1        13958921250                       # Energy for precharge background per rank (pJ)
system.mem_ctrls0.totalEnergy::0          44427075600                       # Total energy per rank (pJ)
system.mem_ctrls0.totalEnergy::1          44313695850                       # Total energy per rank (pJ)
system.mem_ctrls0.averagePower::0          744.301127                       # Core power per rank (mW)
system.mem_ctrls0.averagePower::1          742.401639                       # Core power per rank (mW)
system.mem_ctrls1.bytes_read::ruby.dir_cntrl1     13850880                       # Number of bytes read from this memory
system.mem_ctrls1.bytes_read::total          13850880                       # Number of bytes read from this memory
system.mem_ctrls1.bytes_written::ruby.dir_cntrl1      3840704                       # Number of bytes written to this memory
system.mem_ctrls1.bytes_written::total        3840704                       # Number of bytes written to this memory
system.mem_ctrls1.num_reads::ruby.dir_cntrl1       216420                       # Number of read requests responded to by this memory
system.mem_ctrls1.num_reads::total             216420                       # Number of read requests responded to by this memory
system.mem_ctrls1.num_writes::ruby.dir_cntrl1        60011                       # Number of write requests responded to by this memory
system.mem_ctrls1.num_writes::total             60011                       # Number of write requests responded to by this memory
system.mem_ctrls1.bw_read::ruby.dir_cntrl1    232029850                       # Total read bandwidth from this memory (bytes/s)
system.mem_ctrls1.bw_read::total            232029850                       # Total read bandwidth from this memory (bytes/s)
system.mem_ctrls1.bw_write::ruby.dir_cntrl1     64339448                       # Write bandwidth from this memory (bytes/s)
system.mem_ctrls1.bw_write::total            64339448                       # Write bandwidth from this memory (bytes/s)
system.mem_ctrls1.bw_total::ruby.dir_cntrl1    296369298                       # Total bandwidth to/from this memory (bytes/s)
system.mem_ctrls1.bw_total::total           296369298                       # Total bandwidth to/from this memory (bytes/s)
system.mem_ctrls1.readReqs                     216420                       # Number of read requests accepted
system.mem_ctrls1.writeReqs                     60011                       # Number of write requests accepted
system.mem_ctrls1.readBursts                   216420                       # Number of DRAM read bursts, including those serviced by the write queue
system.mem_ctrls1.writeBursts                   60011                       # Number of DRAM write bursts, including those merged in the write queue
system.mem_ctrls1.bytesReadDRAM              13849536                       # Total number of bytes read from DRAM
system.mem_ctrls1.bytesReadWrQ                   1344                       # Total number of bytes read from write queue
system.mem_ctrls1.bytesWritten                3840576                       # Total number of bytes written to DRAM
system.mem_ctrls1.bytesReadSys               13850880                       # Total read bytes from the system interface side
system.mem_ctrls1.bytesWrittenSys             3840704                       # Total written bytes from the system interface side
system.mem_ctrls1.servicedByWrQ                    21                       # Number of DRAM read bursts serviced by the write queue
system.mem_ctrls1.mergedWrBursts                    0                       # Number of DRAM write bursts merged with an existing one
system.mem_ctrls1.neitherReadNorWriteReqs            0                       # Number of requests that are neither read nor write
system.mem_ctrls1.perBankRdBursts::0            13290                       # Per bank write bursts
system.mem_ctrls1.perBankRdBursts::1            13819                       # Per bank write bursts
system.mem_ctrls1.perBankRdBursts::2            13485                       # Per bank write bursts
system.mem_ctrls1.perBankRdBursts::3            13893                       # Per bank write bursts
system.mem_ctrls1.perBankRdBursts::4            13534                       # Per bank write bursts
system.mem_ctrls1.perBankRdBursts::5            14115                       # Per bank write bursts
system.mem_ctrls1.perBankRdBursts::6            13534                       # Per bank write bursts
system.mem_ctrls1.perBankRdBursts::7            13509                       # Per bank write bursts
system.mem_ctrls1.perBankRdBursts::8            13401                       # Per bank write bursts
system.mem_ctrls1.perBankRdBursts::9            13712                       # Per bank write bursts
system.mem_ctrls1.perBankRdBursts::10           13419                       # Per bank write bursts
system.mem_ctrls1.perBankRdBursts::11           13658                       # Per bank write bursts
system.mem_ctrls1.perBankRdBursts::12           13210                       # Per bank write bursts
system.mem_ctrls1.perBankRdBursts::13           13105                       # Per bank write bursts
system.mem_ctrls1.perBankRdBursts::14           13294                       # Per bank write bursts
system.mem_ctrls1.perBankRdBursts::15           13421                       # Per bank write bursts
system.mem_ctrls1.perBankWrBursts::0             3686                       # Per bank write bursts
system.mem_ctrls1.perBankWrBursts::1             3780                       # Per bank write bursts
system.mem_ctrls1.perBankWrBursts::2             3765                       # Per bank write bursts
system.mem_ctrls1.perBankWrBursts::3             3979                       # Per bank write bursts
system.mem_ctrls1.perBankWrBursts::4             3771                       # Per bank write bursts
system.mem_ctrls1.perBankWrBursts::5             3925                       # Per bank write bursts
system.mem_ctrls1.perBankWrBursts::6             3803                       # Per bank write bursts
system.mem_ctrls1.perBankWrBursts::7             3779                       # Per bank write bursts
system.mem_ctrls1.perBankWrBursts::8             3663                       # Per bank write bursts
system.mem_ctrls1.perBankWrBursts::9             3898                       # Per bank write bursts
system.mem_ctrls1.perBankWrBursts::10            3678                       # Per bank write bursts
system.mem_ctrls1.perBankWrBursts::11            3611                       # Per bank write bursts
system.mem_ctrls1.perBankWrBursts::12            3566                       # Per bank write bursts
system.mem_ctrls1.perBankWrBursts::13            3595                       # Per bank write bursts
system.mem_ctrls1.perBankWrBursts::14            3794                       # Per bank write bursts
system.mem_ctrls1.perBankWrBursts::15            3716                       # Per bank write bursts
system.mem_ctrls1.numRdRetry                      535                       # Number of times read queue was full causing retry
system.mem_ctrls1.numWrRetry                      323                       # Number of times write queue was full causing retry
system.mem_ctrls1.totGap                  59693638000                       # Total gap between requests
system.mem_ctrls1.readPktSize::0                    0                       # Read request sizes (log2)
system.mem_ctrls1.readPktSize::1                    0                       # Read request sizes (log2)
system.mem_ctrls1.readPktSize::2                    0                       # Read request sizes (log2)
system.mem_ctrls1.readPktSize::3                    0                       # Read request sizes (log2)
system.mem_ctrls1.readPktSize::4                    0                       # Read request sizes (log2)
system.mem_ctrls1.readPktSize::5                    0                       # Read request sizes (log2)
system.mem_ctrls1.readPktSize::6               216420                       # Read request sizes (log2)
system.mem_ctrls1.writePktSize::0                   0                       # Write request sizes (log2)
system.mem_ctrls1.writePktSize::1                   0                       # Write request sizes (log2)
system.mem_ctrls1.writePktSize::2                   0                       # Write request sizes (log2)
system.mem_ctrls1.writePktSize::3                   0                       # Write request sizes (log2)
system.mem_ctrls1.writePktSize::4                   0                       # Write request sizes (log2)
system.mem_ctrls1.writePktSize::5                   0                       # Write request sizes (log2)
system.mem_ctrls1.writePktSize::6               60011                       # Write request sizes (log2)
system.mem_ctrls1.rdQLenPdf::0                 158381                       # What read queue length does an incoming req see
system.mem_ctrls1.rdQLenPdf::1                  42860                       # What read queue length does an incoming req see
system.mem_ctrls1.rdQLenPdf::2                  10757                       # What read queue length does an incoming req see
system.mem_ctrls1.rdQLenPdf::3                   2249                       # What read queue length does an incoming req see
system.mem_ctrls1.rdQLenPdf::4                    514                       # What read queue length does an incoming req see
system.mem_ctrls1.rdQLenPdf::5                    161                       # What read queue length does an incoming req see
system.mem_ctrls1.rdQLenPdf::6                     88                       # What read queue length does an incoming req see
system.mem_ctrls1.rdQLenPdf::7                     89                       # What read queue length does an incoming req see
system.mem_ctrls1.rdQLenPdf::8                     68                       # What read queue length does an incoming req see
system.mem_ctrls1.rdQLenPdf::9                     75                       # What read queue length does an incoming req see
system.mem_ctrls1.rdQLenPdf::10                    74                       # What read queue length does an incoming req see
system.mem_ctrls1.rdQLenPdf::11                    57                       # What read queue length does an incoming req see
system.mem_ctrls1.rdQLenPdf::12                    41                       # What read queue length does an incoming req see
system.mem_ctrls1.rdQLenPdf::13                    33                       # What read queue length does an incoming req see
system.mem_ctrls1.rdQLenPdf::14                    37                       # What read queue length does an incoming req see
system.mem_ctrls1.rdQLenPdf::15                    37                       # What read queue length does an incoming req see
system.mem_ctrls1.rdQLenPdf::16                    42                       # What read queue length does an incoming req see
system.mem_ctrls1.rdQLenPdf::17                    30                       # What read queue length does an incoming req see
system.mem_ctrls1.rdQLenPdf::18                    22                       # What read queue length does an incoming req see
system.mem_ctrls1.rdQLenPdf::19                    27                       # What read queue length does an incoming req see
system.mem_ctrls1.rdQLenPdf::20                    28                       # What read queue length does an incoming req see
system.mem_ctrls1.rdQLenPdf::21                    26                       # What read queue length does an incoming req see
system.mem_ctrls1.rdQLenPdf::22                    22                       # What read queue length does an incoming req see
system.mem_ctrls1.rdQLenPdf::23                    21                       # What read queue length does an incoming req see
system.mem_ctrls1.rdQLenPdf::24                    17                       # What read queue length does an incoming req see
system.mem_ctrls1.rdQLenPdf::25                    18                       # What read queue length does an incoming req see
system.mem_ctrls1.rdQLenPdf::26                    14                       # What read queue length does an incoming req see
system.mem_ctrls1.rdQLenPdf::27                    11                       # What read queue length does an incoming req see
system.mem_ctrls1.rdQLenPdf::28                    11                       # What read queue length does an incoming req see
system.mem_ctrls1.rdQLenPdf::29                    10                       # What read queue length does an incoming req see
system.mem_ctrls1.rdQLenPdf::30                    12                       # What read queue length does an incoming req see
system.mem_ctrls1.rdQLenPdf::31                   567                       # What read queue length does an incoming req see
system.mem_ctrls1.wrQLenPdf::0                  11679                       # What write queue length does an incoming req see
system.mem_ctrls1.wrQLenPdf::1                  11903                       # What write queue length does an incoming req see
system.mem_ctrls1.wrQLenPdf::2                  11904                       # What write queue length does an incoming req see
system.mem_ctrls1.wrQLenPdf::3                  11852                       # What write queue length does an incoming req see
system.mem_ctrls1.wrQLenPdf::4                  11810                       # What write queue length does an incoming req see
system.mem_ctrls1.wrQLenPdf::5                    217                       # What write queue length does an incoming req see
system.mem_ctrls1.wrQLenPdf::6                    150                       # What write queue length does an incoming req see
system.mem_ctrls1.wrQLenPdf::7                    496                       # What write queue length does an incoming req see
system.mem_ctrls1.bytesPerActivate::samples        80883                       # Bytes accessed per row activation
system.mem_ctrls1.bytesPerActivate::mean   218.702076                       # Bytes accessed per row activation
system.mem_ctrls1.bytesPerActivate::gmean   139.966142                       # Bytes accessed per row activation
system.mem_ctrls1.bytesPerActivate::stdev   246.261339                       # Bytes accessed per row activation
system.mem_ctrls1.bytesPerActivate::0-127        37988     46.97%     46.97% # Bytes accessed per row activation
system.mem_ctrls1.bytesPerActivate::128-255        17012     21.03%     68.00% # Bytes accessed per row activation
system.mem_ctrls1.bytesPerActivate::256-383        14440     17.85%     85.85% # Bytes accessed per row activation
system.mem_ctrls1.bytesPerActivate::384-511         2563      3.17%     89.02% # Bytes accessed per row activation
system.mem_ctrls1.bytesPerActivate::512-639         1866      2.31%     91.33% # Bytes accessed per row activation
system.mem_ctrls1.bytesPerActivate::640-767         1285      1.59%     92.92% # Bytes accessed per row activation
system.mem_ctrls1.bytesPerActivate::768-895         1081      1.34%     94.25% # Bytes accessed per row activation
system.mem_ctrls1.bytesPerActivate::896-1023          940      1.16%     95.42% # Bytes accessed per row activation
system.mem_ctrls1.bytesPerActivate::1024-1151         3708      4.58%    100.00% # Bytes accessed per row activation
system.mem_ctrls1.bytesPerActivate::total        80883                       # Bytes accessed per row activation
system.mem_ctrls1.rdPerTurnAround::samples        11718                       # Reads before turning the bus around for writes
system.mem_ctrls1.rdPerTurnAround::mean     18.304062                       # Reads before turning the bus around for writes
system.mem_ctrls1.rdPerTurnAround::stdev    75.599844                       # Reads before turning the bus around for writes
system.mem_ctrls1.rdPerTurnAround::0-127        11371     97.04%     97.04% # Reads before turning the bus around for writes
system.mem_ctrls1.rdPerTurnAround::128-255          157      1.34%     98.38% # Reads before turning the bus around for writes
system.mem_ctrls1.rdPerTurnAround::256-383           94      0.80%     99.18% # Reads before turning the bus around for writes
system.mem_ctrls1.rdPerTurnAround::384-511           47      0.40%     99.58% # Reads before turning the bus around for writes
system.mem_ctrls1.rdPerTurnAround::512-639           24      0.20%     99.79% # Reads before turning the bus around for writes
system.mem_ctrls1.rdPerTurnAround::640-767           12      0.10%     99.89% # Reads before turning the bus around for writes
system.mem_ctrls1.rdPerTurnAround::768-895            3      0.03%     99.91% # Reads before turning the bus around for writes
system.mem_ctrls1.rdPerTurnAround::896-1023            3      0.03%     99.94% # Reads before turning the bus around for writes
system.mem_ctrls1.rdPerTurnAround::1152-1279            2      0.02%     99.96% # Reads before turning the bus around for writes
system.mem_ctrls1.rdPerTurnAround::1792-1919            2      0.02%     99.97% # Reads before turning the bus around for writes
system.mem_ctrls1.rdPerTurnAround::1920-2047            2      0.02%     99.99% # Reads before turning the bus around for writes
system.mem_ctrls1.rdPerTurnAround::2816-2943            1      0.01%    100.00% # Reads before turning the bus around for writes
system.mem_ctrls1.rdPerTurnAround::total        11718                       # Reads before turning the bus around for writes
system.mem_ctrls1.wrPerTurnAround::samples        11718                       # Writes before turning the bus around for reads
system.mem_ctrls1.wrPerTurnAround::mean      5.121096                       # Writes before turning the bus around for reads
system.mem_ctrls1.wrPerTurnAround::gmean     5.083208                       # Writes before turning the bus around for reads
system.mem_ctrls1.wrPerTurnAround::stdev     0.888375                       # Writes before turning the bus around for reads
system.mem_ctrls1.wrPerTurnAround::4-7          11600     98.99%     98.99% # Writes before turning the bus around for reads
system.mem_ctrls1.wrPerTurnAround::8-11            43      0.37%     99.36% # Writes before turning the bus around for reads
system.mem_ctrls1.wrPerTurnAround::12-15           21      0.18%     99.54% # Writes before turning the bus around for reads
system.mem_ctrls1.wrPerTurnAround::16-19           54      0.46%    100.00% # Writes before turning the bus around for reads
system.mem_ctrls1.wrPerTurnAround::total        11718                       # Writes before turning the bus around for reads
system.mem_ctrls1.totQLat                  2867395089                       # Total ticks spent queuing
system.mem_ctrls1.totMemAccLat             6924876339                       # Total ticks spent from burst creation until serviced by the DRAM
system.mem_ctrls1.totBusLat                1081995000                       # Total ticks spent in databus transfers
system.mem_ctrls1.avgQLat                    13250.50                       # Average queueing delay per DRAM burst
system.mem_ctrls1.avgBusLat                   5000.00                       # Average bus latency per DRAM burst
system.mem_ctrls1.avgMemAccLat               32000.50                       # Average memory access latency per DRAM burst
system.mem_ctrls1.avgRdBW                      232.01                       # Average DRAM read bandwidth in MiByte/s
system.mem_ctrls1.avgWrBW                       64.34                       # Average achieved write bandwidth in MiByte/s
system.mem_ctrls1.avgRdBWSys                   232.03                       # Average system read bandwidth in MiByte/s
system.mem_ctrls1.avgWrBWSys                    64.34                       # Average system write bandwidth in MiByte/s
system.mem_ctrls1.peakBW                     12800.00                       # Theoretical peak bandwidth in MiByte/s
system.mem_ctrls1.busUtil                        2.32                       # Data bus utilization in percentage
system.mem_ctrls1.busUtilRead                    1.81                       # Data bus utilization in percentage for reads
system.mem_ctrls1.busUtilWrite                   0.50                       # Data bus utilization in percentage for writes
system.mem_ctrls1.avgRdQLen                      1.10                       # Average read queue length when enqueuing
system.mem_ctrls1.avgWrQLen                      2.93                       # Average write queue length when enqueuing
system.mem_ctrls1.readRowHits                  156635                       # Number of row buffer hits during reads
system.mem_ctrls1.writeRowHits                  38883                       # Number of row buffer hits during writes
system.mem_ctrls1.readRowHitRate                72.38                       # Row buffer hit rate for reads
system.mem_ctrls1.writeRowHitRate               64.79                       # Row buffer hit rate for writes
system.mem_ctrls1.avgGap                    215944.08                       # Average gap between requests
system.mem_ctrls1.pageHitRate                   70.73                       # Row buffer hit rate, read and write combined
system.mem_ctrls1.memoryStateTime::IDLE   11219747500                       # Time in different power states
system.mem_ctrls1.memoryStateTime::REF     1993160000                       # Time in different power states
system.mem_ctrls1.memoryStateTime::PRE_PDN            0                       # Time in different power states
system.mem_ctrls1.memoryStateTime::ACT    46477252000                       # Time in different power states
system.mem_ctrls1.memoryStateTime::ACT_PDN            0                       # Time in different power states
system.mem_ctrls1.actEnergy::0              309891960                       # Energy for activate commands per rank (pJ)
system.mem_ctrls1.actEnergy::1              301583520                       # Energy for activate commands per rank (pJ)
system.mem_ctrls1.preEnergy::0              169087875                       # Energy for precharge commands per rank (pJ)
system.mem_ctrls1.preEnergy::1              164554500                       # Energy for precharge commands per rank (pJ)
system.mem_ctrls1.readEnergy::0             851533800                       # Energy for read commands per rank (pJ)
system.mem_ctrls1.readEnergy::1             836277000                       # Energy for read commands per rank (pJ)
system.mem_ctrls1.writeEnergy::0            197562240                       # Energy for write commands per rank (pJ)
system.mem_ctrls1.writeEnergy::1            191296080                       # Energy for write commands per rank (pJ)
system.mem_ctrls1.refreshEnergy::0         3898620960                       # Energy for refresh commands per rank (pJ)
system.mem_ctrls1.refreshEnergy::1         3898620960                       # Energy for refresh commands per rank (pJ)
system.mem_ctrls1.actBackEnergy::0        25278030540                       # Energy for active background per rank (pJ)
system.mem_ctrls1.actBackEnergy::1        24341997915                       # Energy for active background per rank (pJ)
system.mem_ctrls1.preBackEnergy::0        13640080500                       # Energy for precharge background per rank (pJ)
system.mem_ctrls1.preBackEnergy::1        14461161750                       # Energy for precharge background per rank (pJ)
system.mem_ctrls1.totalEnergy::0          44344807875                       # Total energy per rank (pJ)
system.mem_ctrls1.totalEnergy::1          44195491725                       # Total energy per rank (pJ)
system.mem_ctrls1.averagePower::0          742.922869                       # Core power per rank (mW)
system.mem_ctrls1.averagePower::1          740.421327                       # Core power per rank (mW)
system.mem_ctrls2.bytes_read::ruby.dir_cntrl2     13851776                       # Number of bytes read from this memory
system.mem_ctrls2.bytes_read::total          13851776                       # Number of bytes read from this memory
system.mem_ctrls2.bytes_written::ruby.dir_cntrl2      3841920                       # Number of bytes written to this memory
system.mem_ctrls2.bytes_written::total        3841920                       # Number of bytes written to this memory
system.mem_ctrls2.num_reads::ruby.dir_cntrl2       216434                       # Number of read requests responded to by this memory
system.mem_ctrls2.num_reads::total             216434                       # Number of read requests responded to by this memory
system.mem_ctrls2.num_writes::ruby.dir_cntrl2        60030                       # Number of write requests responded to by this memory
system.mem_ctrls2.num_writes::total             60030                       # Number of write requests responded to by this memory
system.mem_ctrls2.bw_read::ruby.dir_cntrl2    232044860                       # Total read bandwidth from this memory (bytes/s)
system.mem_ctrls2.bw_read::total            232044860                       # Total read bandwidth from this memory (bytes/s)
system.mem_ctrls2.bw_write::ruby.dir_cntrl2     64359818                       # Write bandwidth from this memory (bytes/s)
system.mem_ctrls2.bw_write::total            64359818                       # Write bandwidth from this memory (bytes/s)
system.mem_ctrls2.bw_total::ruby.dir_cntrl2    296404678                       # Total bandwidth to/from this memory (bytes/s)
system.mem_ctrls2.bw_total::total           296404678                       # Total bandwidth to/from this memory (bytes/s)
system.mem_ctrls2.readReqs                     216434                       # Number of read requests accepted
system.mem_ctrls2.writeReqs                     60030                       # Number of write requests accepted
system.mem_ctrls2.readBursts                   216434                       # Number of DRAM read bursts, including those serviced by the write queue
system.mem_ctrls2.writeBursts                   60030                       # Number of DRAM write bursts, including those merged in the write queue
system.mem_ctrls2.bytesReadDRAM              13851008                       # Total number of bytes read from DRAM
system.mem_ctrls2.bytesReadWrQ                    768                       # Total number of bytes read from write queue
system.mem_ctrls2.bytesWritten                3841920                       # Total number of bytes written to DRAM
system.mem_ctrls2.bytesReadSys               13851776                       # Total read bytes from the system interface side
system.mem_ctrls2.bytesWrittenSys             3841920                       # Total written bytes from the system interface side
system.mem_ctrls2.servicedByWrQ                    12                       # Number of DRAM read bursts serviced by the write queue
system.mem_ctrls2.mergedWrBursts                    0                       # Number of DRAM write bursts merged with an existing one
system.mem_ctrls2.neitherReadNorWriteReqs            0                       # Number of requests that are neither read nor write
system.mem_ctrls2.perBankRdBursts::0            13292                       # Per bank write bursts
system.mem_ctrls2.perBankRdBursts::1            13834                       # Per bank write bursts
system.mem_ctrls2.perBankRdBursts::2            13508                       # Per bank write bursts
system.mem_ctrls2.perBankRdBursts::3            13918                       # Per bank write bursts
system.mem_ctrls2.perBankRdBursts::4            13545                       # Per bank write bursts
system.mem_ctrls2.perBankRdBursts::5            14106                       # Per bank write bursts
system.mem_ctrls2.perBankRdBursts::6            13494                       # Per bank write bursts
system.mem_ctrls2.perBankRdBursts::7            13499                       # Per bank write bursts
system.mem_ctrls2.perBankRdBursts::8            13396                       # Per bank write bursts
system.mem_ctrls2.perBankRdBursts::9            13711                       # Per bank write bursts
system.mem_ctrls2.perBankRdBursts::10           13425                       # Per bank write bursts
system.mem_ctrls2.perBankRdBursts::11           13701                       # Per bank write bursts
system.mem_ctrls2.perBankRdBursts::12           13205                       # Per bank write bursts
system.mem_ctrls2.perBankRdBursts::13           13068                       # Per bank write bursts
system.mem_ctrls2.perBankRdBursts::14           13299                       # Per bank write bursts
system.mem_ctrls2.perBankRdBursts::15           13421                       # Per bank write bursts
system.mem_ctrls2.perBankWrBursts::0             3682                       # Per bank write bursts
system.mem_ctrls2.perBankWrBursts::1             3777                       # Per bank write bursts
system.mem_ctrls2.perBankWrBursts::2             3762                       # Per bank write bursts
system.mem_ctrls2.perBankWrBursts::3             3992                       # Per bank write bursts
system.mem_ctrls2.perBankWrBursts::4             3770                       # Per bank write bursts
system.mem_ctrls2.perBankWrBursts::5             3914                       # Per bank write bursts
system.mem_ctrls2.perBankWrBursts::6             3812                       # Per bank write bursts
system.mem_ctrls2.perBankWrBursts::7             3786                       # Per bank write bursts
system.mem_ctrls2.perBankWrBursts::8             3665                       # Per bank write bursts
system.mem_ctrls2.perBankWrBursts::9             3906                       # Per bank write bursts
system.mem_ctrls2.perBankWrBursts::10            3674                       # Per bank write bursts
system.mem_ctrls2.perBankWrBursts::11            3608                       # Per bank write bursts
system.mem_ctrls2.perBankWrBursts::12            3575                       # Per bank write bursts
system.mem_ctrls2.perBankWrBursts::13            3589                       # Per bank write bursts
system.mem_ctrls2.perBankWrBursts::14            3799                       # Per bank write bursts
system.mem_ctrls2.perBankWrBursts::15            3719                       # Per bank write bursts
system.mem_ctrls2.numRdRetry                      527                       # Number of times read queue was full causing retry
system.mem_ctrls2.numWrRetry                      269                       # Number of times write queue was full causing retry
system.mem_ctrls2.totGap                  59693670500                       # Total gap between requests
system.mem_ctrls2.readPktSize::0                    0                       # Read request sizes (log2)
system.mem_ctrls2.readPktSize::1                    0                       # Read request sizes (log2)
system.mem_ctrls2.readPktSize::2                    0                       # Read request sizes (log2)
system.mem_ctrls2.readPktSize::3                    0                       # Read request sizes (log2)
system.mem_ctrls2.readPktSize::4                    0                       # Read request sizes (log2)
system.mem_ctrls2.readPktSize::5                    0                       # Read request sizes (log2)
system.mem_ctrls2.readPktSize::6               216434                       # Read request sizes (log2)
system.mem_ctrls2.writePktSize::0                   0                       # Write request sizes (log2)
system.mem_ctrls2.writePktSize::1                   0                       # Write request sizes (log2)
system.mem_ctrls2.writePktSize::2                   0                       # Write request sizes (log2)
system.mem_ctrls2.writePktSize::3                   0                       # Write request sizes (log2)
system.mem_ctrls2.writePktSize::4                   0                       # Write request sizes (log2)
system.mem_ctrls2.writePktSize::5                   0                       # Write request sizes (log2)
system.mem_ctrls2.writePktSize::6               60030                       # Write request sizes (log2)
system.mem_ctrls2.rdQLenPdf::0                 158801                       # What read queue length does an incoming req see
system.mem_ctrls2.rdQLenPdf::1                  42473                       # What read queue length does an incoming req see
system.mem_ctrls2.rdQLenPdf::2                  10718                       # What read queue length does an incoming req see
system.mem_ctrls2.rdQLenPdf::3                   2373                       # What read queue length does an incoming req see
system.mem_ctrls2.rdQLenPdf::4                    492                       # What read queue length does an incoming req see
system.mem_ctrls2.rdQLenPdf::5                    153                       # What read queue length does an incoming req see
system.mem_ctrls2.rdQLenPdf::6                     84                       # What read queue length does an incoming req see
system.mem_ctrls2.rdQLenPdf::7                     66                       # What read queue length does an incoming req see
system.mem_ctrls2.rdQLenPdf::8                     59                       # What read queue length does an incoming req see
system.mem_ctrls2.rdQLenPdf::9                     46                       # What read queue length does an incoming req see
system.mem_ctrls2.rdQLenPdf::10                    38                       # What read queue length does an incoming req see
system.mem_ctrls2.rdQLenPdf::11                    31                       # What read queue length does an incoming req see
system.mem_ctrls2.rdQLenPdf::12                    29                       # What read queue length does an incoming req see
system.mem_ctrls2.rdQLenPdf::13                    26                       # What read queue length does an incoming req see
system.mem_ctrls2.rdQLenPdf::14                    28                       # What read queue length does an incoming req see
system.mem_ctrls2.rdQLenPdf::15                    26                       # What read queue length does an incoming req see
system.mem_ctrls2.rdQLenPdf::16                    34                       # What read queue length does an incoming req see
system.mem_ctrls2.rdQLenPdf::17                    31                       # What read queue length does an incoming req see
system.mem_ctrls2.rdQLenPdf::18                    35                       # What read queue length does an incoming req see
system.mem_ctrls2.rdQLenPdf::19                    37                       # What read queue length does an incoming req see
system.mem_ctrls2.rdQLenPdf::20                    38                       # What read queue length does an incoming req see
system.mem_ctrls2.rdQLenPdf::21                    32                       # What read queue length does an incoming req see
system.mem_ctrls2.rdQLenPdf::22                    32                       # What read queue length does an incoming req see
system.mem_ctrls2.rdQLenPdf::23                    22                       # What read queue length does an incoming req see
system.mem_ctrls2.rdQLenPdf::24                    18                       # What read queue length does an incoming req see
system.mem_ctrls2.rdQLenPdf::25                    24                       # What read queue length does an incoming req see
system.mem_ctrls2.rdQLenPdf::26                    19                       # What read queue length does an incoming req see
system.mem_ctrls2.rdQLenPdf::27                    22                       # What read queue length does an incoming req see
system.mem_ctrls2.rdQLenPdf::28                    17                       # What read queue length does an incoming req see
system.mem_ctrls2.rdQLenPdf::29                    16                       # What read queue length does an incoming req see
system.mem_ctrls2.rdQLenPdf::30                    19                       # What read queue length does an incoming req see
system.mem_ctrls2.rdQLenPdf::31                   583                       # What read queue length does an incoming req see
system.mem_ctrls2.wrQLenPdf::0                  11693                       # What write queue length does an incoming req see
system.mem_ctrls2.wrQLenPdf::1                  11883                       # What write queue length does an incoming req see
system.mem_ctrls2.wrQLenPdf::2                  11884                       # What write queue length does an incoming req see
system.mem_ctrls2.wrQLenPdf::3                  11864                       # What write queue length does an incoming req see
system.mem_ctrls2.wrQLenPdf::4                  11820                       # What write queue length does an incoming req see
system.mem_ctrls2.wrQLenPdf::5                    244                       # What write queue length does an incoming req see
system.mem_ctrls2.wrQLenPdf::6                    189                       # What write queue length does an incoming req see
system.mem_ctrls2.wrQLenPdf::7                    453                       # What write queue length does an incoming req see
system.mem_ctrls2.bytesPerActivate::samples        80909                       # Bytes accessed per row activation
system.mem_ctrls2.bytesPerActivate::mean   218.665810                       # Bytes accessed per row activation
system.mem_ctrls2.bytesPerActivate::gmean   139.820504                       # Bytes accessed per row activation
system.mem_ctrls2.bytesPerActivate::stdev   246.213204                       # Bytes accessed per row activation
system.mem_ctrls2.bytesPerActivate::0-127        38207     47.22%     47.22% # Bytes accessed per row activation
system.mem_ctrls2.bytesPerActivate::128-255        16605     20.52%     67.75% # Bytes accessed per row activation
system.mem_ctrls2.bytesPerActivate::256-383        14602     18.05%     85.79% # Bytes accessed per row activation
system.mem_ctrls2.bytesPerActivate::384-511         2581      3.19%     88.98% # Bytes accessed per row activation
system.mem_ctrls2.bytesPerActivate::512-639         1854      2.29%     91.27% # Bytes accessed per row activation
system.mem_ctrls2.bytesPerActivate::640-767         1327      1.64%     92.91% # Bytes accessed per row activation
system.mem_ctrls2.bytesPerActivate::768-895         1104      1.36%     94.28% # Bytes accessed per row activation
system.mem_ctrls2.bytesPerActivate::896-1023          943      1.17%     95.44% # Bytes accessed per row activation
system.mem_ctrls2.bytesPerActivate::1024-1151         3686      4.56%    100.00% # Bytes accessed per row activation
system.mem_ctrls2.bytesPerActivate::total        80909                       # Bytes accessed per row activation
system.mem_ctrls2.rdPerTurnAround::samples        11730                       # Reads before turning the bus around for writes
system.mem_ctrls2.rdPerTurnAround::mean     18.446292                       # Reads before turning the bus around for writes
system.mem_ctrls2.rdPerTurnAround::stdev    77.816337                       # Reads before turning the bus around for writes
system.mem_ctrls2.rdPerTurnAround::0-127        11381     97.02%     97.02% # Reads before turning the bus around for writes
system.mem_ctrls2.rdPerTurnAround::128-255          163      1.39%     98.41% # Reads before turning the bus around for writes
system.mem_ctrls2.rdPerTurnAround::256-383           89      0.76%     99.17% # Reads before turning the bus around for writes
system.mem_ctrls2.rdPerTurnAround::384-511           45      0.38%     99.56% # Reads before turning the bus around for writes
system.mem_ctrls2.rdPerTurnAround::512-639           25      0.21%     99.77% # Reads before turning the bus around for writes
system.mem_ctrls2.rdPerTurnAround::640-767           12      0.10%     99.87% # Reads before turning the bus around for writes
system.mem_ctrls2.rdPerTurnAround::768-895            2      0.02%     99.89% # Reads before turning the bus around for writes
system.mem_ctrls2.rdPerTurnAround::896-1023            3      0.03%     99.91% # Reads before turning the bus around for writes
system.mem_ctrls2.rdPerTurnAround::1024-1151            1      0.01%     99.92% # Reads before turning the bus around for writes
system.mem_ctrls2.rdPerTurnAround::1152-1279            2      0.02%     99.94% # Reads before turning the bus around for writes
system.mem_ctrls2.rdPerTurnAround::1408-1535            1      0.01%     99.95% # Reads before turning the bus around for writes
system.mem_ctrls2.rdPerTurnAround::1536-1663            1      0.01%     99.96% # Reads before turning the bus around for writes
system.mem_ctrls2.rdPerTurnAround::1664-1791            2      0.02%     99.97% # Reads before turning the bus around for writes
system.mem_ctrls2.rdPerTurnAround::1792-1919            1      0.01%     99.98% # Reads before turning the bus around for writes
system.mem_ctrls2.rdPerTurnAround::1920-2047            1      0.01%     99.99% # Reads before turning the bus around for writes
system.mem_ctrls2.rdPerTurnAround::2816-2943            1      0.01%    100.00% # Reads before turning the bus around for writes
system.mem_ctrls2.rdPerTurnAround::total        11730                       # Reads before turning the bus around for writes
system.mem_ctrls2.wrPerTurnAround::samples        11730                       # Writes before turning the bus around for reads
system.mem_ctrls2.wrPerTurnAround::mean      5.117647                       # Writes before turning the bus around for reads
system.mem_ctrls2.wrPerTurnAround::gmean     5.081807                       # Writes before turning the bus around for reads
system.mem_ctrls2.wrPerTurnAround::stdev     0.858555                       # Writes before turning the bus around for reads
system.mem_ctrls2.wrPerTurnAround::4-7          11611     98.99%     98.99% # Writes before turning the bus around for reads
system.mem_ctrls2.wrPerTurnAround::8-11            50      0.43%     99.41% # Writes before turning the bus around for reads
system.mem_ctrls2.wrPerTurnAround::12-15           21      0.18%     99.59% # Writes before turning the bus around for reads
system.mem_ctrls2.wrPerTurnAround::16-19           48      0.41%    100.00% # Writes before turning the bus around for reads
system.mem_ctrls2.wrPerTurnAround::total        11730                       # Writes before turning the bus around for reads
system.mem_ctrls2.totQLat                  2870524827                       # Total ticks spent queuing
system.mem_ctrls2.totMemAccLat             6928437327                       # Total ticks spent from burst creation until serviced by the DRAM
system.mem_ctrls2.totBusLat                1082110000                       # Total ticks spent in databus transfers
system.mem_ctrls2.avgQLat                    13263.55                       # Average queueing delay per DRAM burst
system.mem_ctrls2.avgBusLat                   5000.00                       # Average bus latency per DRAM burst
system.mem_ctrls2.avgMemAccLat               32013.55                       # Average memory access latency per DRAM burst
system.mem_ctrls2.avgRdBW                      232.03                       # Average DRAM read bandwidth in MiByte/s
system.mem_ctrls2.avgWrBW                       64.36                       # Average achieved write bandwidth in MiByte/s
system.mem_ctrls2.avgRdBWSys                   232.04                       # Average system read bandwidth in MiByte/s
system.mem_ctrls2.avgWrBWSys                    64.36                       # Average system write bandwidth in MiByte/s
system.mem_ctrls2.peakBW                     12800.00                       # Theoretical peak bandwidth in MiByte/s
system.mem_ctrls2.busUtil                        2.32                       # Data bus utilization in percentage
system.mem_ctrls2.busUtilRead                    1.81                       # Data bus utilization in percentage for reads
system.mem_ctrls2.busUtilWrite                   0.50                       # Data bus utilization in percentage for writes
system.mem_ctrls2.avgRdQLen                      1.10                       # Average read queue length when enqueuing
system.mem_ctrls2.avgWrQLen                      3.00                       # Average write queue length when enqueuing
system.mem_ctrls2.readRowHits                  156596                       # Number of row buffer hits during reads
system.mem_ctrls2.writeRowHits                  38939                       # Number of row buffer hits during writes
system.mem_ctrls2.readRowHitRate                72.36                       # Row buffer hit rate for reads
system.mem_ctrls2.writeRowHitRate               64.87                       # Row buffer hit rate for writes
system.mem_ctrls2.avgGap                    215918.42                       # Average gap between requests
system.mem_ctrls2.pageHitRate                   70.73                       # Row buffer hit rate, read and write combined
system.mem_ctrls2.memoryStateTime::IDLE   11118325750                       # Time in different power states
system.mem_ctrls2.memoryStateTime::REF     1993160000                       # Time in different power states
system.mem_ctrls2.memoryStateTime::PRE_PDN            0                       # Time in different power states
system.mem_ctrls2.memoryStateTime::ACT    46578310750                       # Time in different power states
system.mem_ctrls2.memoryStateTime::ACT_PDN            0                       # Time in different power states
system.mem_ctrls2.actEnergy::0              309778560                       # Energy for activate commands per rank (pJ)
system.mem_ctrls2.actEnergy::1              301885920                       # Energy for activate commands per rank (pJ)
system.mem_ctrls2.preEnergy::0              169026000                       # Energy for precharge commands per rank (pJ)
system.mem_ctrls2.preEnergy::1              164719500                       # Energy for precharge commands per rank (pJ)
system.mem_ctrls2.readEnergy::0             851650800                       # Energy for read commands per rank (pJ)
system.mem_ctrls2.readEnergy::1             836323800                       # Energy for read commands per rank (pJ)
system.mem_ctrls2.writeEnergy::0            197607600                       # Energy for write commands per rank (pJ)
system.mem_ctrls2.writeEnergy::1            191386800                       # Energy for write commands per rank (pJ)
system.mem_ctrls2.refreshEnergy::0         3898620960                       # Energy for refresh commands per rank (pJ)
system.mem_ctrls2.refreshEnergy::1         3898620960                       # Energy for refresh commands per rank (pJ)
system.mem_ctrls2.actBackEnergy::0        25258951215                       # Energy for active background per rank (pJ)
system.mem_ctrls2.actBackEnergy::1        24486813540                       # Energy for active background per rank (pJ)
system.mem_ctrls2.preBackEnergy::0        13656816750                       # Energy for precharge background per rank (pJ)
system.mem_ctrls2.preBackEnergy::1        14334130500                       # Energy for precharge background per rank (pJ)
system.mem_ctrls2.totalEnergy::0          44342451885                       # Total energy per rank (pJ)
system.mem_ctrls2.totalEnergy::1          44213881020                       # Total energy per rank (pJ)
system.mem_ctrls2.averagePower::0          742.883398                       # Core power per rank (mW)
system.mem_ctrls2.averagePower::1          740.729409                       # Core power per rank (mW)
system.mem_ctrls3.bytes_read::ruby.dir_cntrl3     13836864                       # Number of bytes read from this memory
system.mem_ctrls3.bytes_read::total          13836864                       # Number of bytes read from this memory
system.mem_ctrls3.bytes_written::ruby.dir_cntrl3      3838464                       # Number of bytes written to this memory
system.mem_ctrls3.bytes_written::total        3838464                       # Number of bytes written to this memory
system.mem_ctrls3.num_reads::ruby.dir_cntrl3       216201                       # Number of read requests responded to by this memory
system.mem_ctrls3.num_reads::total             216201                       # Number of read requests responded to by this memory
system.mem_ctrls3.num_writes::ruby.dir_cntrl3        59976                       # Number of write requests responded to by this memory
system.mem_ctrls3.num_writes::total             59976                       # Number of write requests responded to by this memory
system.mem_ctrls3.bw_read::ruby.dir_cntrl3    231795054                       # Total read bandwidth from this memory (bytes/s)
system.mem_ctrls3.bw_read::total            231795054                       # Total read bandwidth from this memory (bytes/s)
system.mem_ctrls3.bw_write::ruby.dir_cntrl3     64301923                       # Write bandwidth from this memory (bytes/s)
system.mem_ctrls3.bw_write::total            64301923                       # Write bandwidth from this memory (bytes/s)
system.mem_ctrls3.bw_total::ruby.dir_cntrl3    296096977                       # Total bandwidth to/from this memory (bytes/s)
system.mem_ctrls3.bw_total::total           296096977                       # Total bandwidth to/from this memory (bytes/s)
system.mem_ctrls3.readReqs                     216202                       # Number of read requests accepted
system.mem_ctrls3.writeReqs                     59976                       # Number of write requests accepted
system.mem_ctrls3.readBursts                   216202                       # Number of DRAM read bursts, including those serviced by the write queue
system.mem_ctrls3.writeBursts                   59976                       # Number of DRAM write bursts, including those merged in the write queue
system.mem_ctrls3.bytesReadDRAM              13836224                       # Total number of bytes read from DRAM
system.mem_ctrls3.bytesReadWrQ                    704                       # Total number of bytes read from write queue
system.mem_ctrls3.bytesWritten                3838464                       # Total number of bytes written to DRAM
system.mem_ctrls3.bytesReadSys               13836928                       # Total read bytes from the system interface side
system.mem_ctrls3.bytesWrittenSys             3838464                       # Total written bytes from the system interface side
system.mem_ctrls3.servicedByWrQ                    11                       # Number of DRAM read bursts serviced by the write queue
system.mem_ctrls3.mergedWrBursts                    0                       # Number of DRAM write bursts merged with an existing one
system.mem_ctrls3.neitherReadNorWriteReqs            0                       # Number of requests that are neither read nor write
system.mem_ctrls3.perBankRdBursts::0            13270                       # Per bank write bursts
system.mem_ctrls3.perBankRdBursts::1            13822                       # Per bank write bursts
system.mem_ctrls3.perBankRdBursts::2            13450                       # Per bank write bursts
system.mem_ctrls3.perBankRdBursts::3            13898                       # Per bank write bursts
system.mem_ctrls3.perBankRdBursts::4            13490                       # Per bank write bursts
system.mem_ctrls3.perBankRdBursts::5            14080                       # Per bank write bursts
system.mem_ctrls3.perBankRdBursts::6            13511                       # Per bank write bursts
system.mem_ctrls3.perBankRdBursts::7            13492                       # Per bank write bursts
system.mem_ctrls3.perBankRdBursts::8            13399                       # Per bank write bursts
system.mem_ctrls3.perBankRdBursts::9            13703                       # Per bank write bursts
system.mem_ctrls3.perBankRdBursts::10           13441                       # Per bank write bursts
system.mem_ctrls3.perBankRdBursts::11           13659                       # Per bank write bursts
system.mem_ctrls3.perBankRdBursts::12           13200                       # Per bank write bursts
system.mem_ctrls3.perBankRdBursts::13           13061                       # Per bank write bursts
system.mem_ctrls3.perBankRdBursts::14           13313                       # Per bank write bursts
system.mem_ctrls3.perBankRdBursts::15           13402                       # Per bank write bursts
system.mem_ctrls3.perBankWrBursts::0             3686                       # Per bank write bursts
system.mem_ctrls3.perBankWrBursts::1             3769                       # Per bank write bursts
system.mem_ctrls3.perBankWrBursts::2             3752                       # Per bank write bursts
system.mem_ctrls3.perBankWrBursts::3             3975                       # Per bank write bursts
system.mem_ctrls3.perBankWrBursts::4             3768                       # Per bank write bursts
system.mem_ctrls3.perBankWrBursts::5             3909                       # Per bank write bursts
system.mem_ctrls3.perBankWrBursts::6             3808                       # Per bank write bursts
system.mem_ctrls3.perBankWrBursts::7             3773                       # Per bank write bursts
system.mem_ctrls3.perBankWrBursts::8             3662                       # Per bank write bursts
system.mem_ctrls3.perBankWrBursts::9             3908                       # Per bank write bursts
system.mem_ctrls3.perBankWrBursts::10            3673                       # Per bank write bursts
system.mem_ctrls3.perBankWrBursts::11            3622                       # Per bank write bursts
system.mem_ctrls3.perBankWrBursts::12            3573                       # Per bank write bursts
system.mem_ctrls3.perBankWrBursts::13            3595                       # Per bank write bursts
system.mem_ctrls3.perBankWrBursts::14            3795                       # Per bank write bursts
system.mem_ctrls3.perBankWrBursts::15            3708                       # Per bank write bursts
system.mem_ctrls3.numRdRetry                      554                       # Number of times read queue was full causing retry
system.mem_ctrls3.numWrRetry                      304                       # Number of times write queue was full causing retry
system.mem_ctrls3.totGap                  59693643000                       # Total gap between requests
system.mem_ctrls3.readPktSize::0                    0                       # Read request sizes (log2)
system.mem_ctrls3.readPktSize::1                    0                       # Read request sizes (log2)
system.mem_ctrls3.readPktSize::2                    0                       # Read request sizes (log2)
system.mem_ctrls3.readPktSize::3                    0                       # Read request sizes (log2)
system.mem_ctrls3.readPktSize::4                    0                       # Read request sizes (log2)
system.mem_ctrls3.readPktSize::5                    0                       # Read request sizes (log2)
system.mem_ctrls3.readPktSize::6               216202                       # Read request sizes (log2)
system.mem_ctrls3.writePktSize::0                   0                       # Write request sizes (log2)
[...]
system.ruby.L2Cache_Controller.IM.Mem_Data::total       190199                      
system.ruby.L2Cache_Controller.SS_MB.Exclusive_Unblock |         212     81.23%     81.23% |           6      2.30%     83.52% |           3      1.15%     84.67% |           6      2.30%     86.97% |           0      0.00%     86.97% |           1      0.38%     87.36% |           1      0.38%     87.74% |           0      0.00%     87.74% |           0      0.00%     87.74% |           1      0.38%     88.12% |           0      0.00%     88.12% |           0      0.00%     88.12% |           5      1.92%     90.04% |           0      0.00%     90.04% |           2      0.77%     90.80% |           1      0.38%     91.19% |           0      0.00%     91.19% |           0      0.00%     91.19% |          10      3.83%     95.02% |           2      0.77%     95.79% |           0      0.00%     95.79% |           0      0.00%     95.79% |           0      0.00%     95.79% |           0      0.00%     95.79% |           1      0.38%     96.17% |           0      0.00%     96.17% |           2      0.77%     96.93% |           1      0.38%     97.32% |           4      1.53%     98.85% |           1      0.38%     99.23% |           1      0.38%     99.62% |           1      0.38%    100.00%
system.ruby.L2Cache_Controller.SS_MB.Exclusive_Unblock::total          261                      
system.ruby.L2Cache_Controller.MT_MB.L1_GETS |           3     25.00%     25.00% |           0      0.00%     25.00% |           0      0.00%     25.00% |           0      0.00%     25.00% |           0      0.00%     25.00% |           0      0.00%     25.00% |           0      0.00%     25.00% |           0      0.00%     25.00% |           0      0.00%     25.00% |           0      0.00%     25.00% |           0      0.00%     25.00% |           0      0.00%     25.00% |           0      0.00%     25.00% |           0      0.00%     25.00% |           0      0.00%     25.00% |           0      0.00%     25.00% |           0      0.00%     25.00% |           4     33.33%     58.33% |           5     41.67%    100.00% |           0      0.00%    100.00% |           0      0.00%    100.00% |           0      0.00%    100.00% |           0      0.00%    100.00% |           0      0.00%    100.00% |           0      0.00%    100.00% |           0      0.00%    100.00% |           0      0.00%    100.00% |           0      0.00%    100.00% |           0      0.00%    100.00% |           0      0.00%    100.00% |           0      0.00%    100.00% |           0      0.00%    100.00%
system.ruby.L2Cache_Controller.MT_MB.L1_GETS::total           12                      
system.ruby.L2Cache_Controller.MT_MB.Exclusive_Unblock |       77646      7.09%      7.09% |       33387      3.05%     10.14% |       32687      2.99%     13.13% |       32854      3.00%     16.13% |       33107      3.02%     19.15% |       32033      2.93%     22.07% |       31958      2.92%     24.99% |       31675      2.89%     27.89% |       33954      3.10%     30.99% |       32355      2.95%     33.94% |       34303      3.13%     37.07% |       33123      3.02%     40.10% |       32694      2.99%     43.09% |       31744      2.90%     45.98% |       31778      2.90%     48.89% |       31669      2.89%     51.78% |       34276      3.13%     54.91% |       32114      2.93%     57.84% |       32965      3.01%     60.85% |       32540      2.97%     63.82% |       33032      3.02%     66.84% |       32475      2.97%     69.81% |       33015      3.02%     72.82% |       32009      2.92%     75.75% |       33648      3.07%     78.82% |       32343      2.95%     81.77% |       32844      3.00%     84.77% |       31817      2.91%     87.68% |       33166      3.03%     90.71% |       31906      2.91%     93.62% |       34282      3.13%     96.75% |       35578      3.25%    100.00%
system.ruby.L2Cache_Controller.MT_MB.Exclusive_Unblock::total      1094977                      
system.ruby.L2Cache_Controller.MT_IIB.L1_GETS |           0      0.00%      0.00% |           4     20.00%     20.00% |           1      5.00%     25.00% |           0      0.00%     25.00% |           0      0.00%     25.00% |           0      0.00%     25.00% |           0      0.00%     25.00% |           0      0.00%     25.00% |           0      0.00%     25.00% |           0      0.00%     25.00% |           0      0.00%     25.00% |           0      0.00%     25.00% |           0      0.00%     25.00% |           0      0.00%     25.00% |           0      0.00%     25.00% |           0      0.00%     25.00% |           0      0.00%     25.00% |           6     30.00%     55.00% |           4     20.00%     75.00% |           5     25.00%    100.00% |           0      0.00%    100.00% |           0      0.00%    100.00% |           0      0.00%    100.00% |           0      0.00%    100.00% |           0      0.00%    100.00% |           0      0.00%    100.00% |           0      0.00%    100.00% |           0      0.00%    100.00% |           0      0.00%    100.00% |           0      0.00%    100.00% |           0      0.00%    100.00% |           0      0.00%    100.00%
system.ruby.L2Cache_Controller.MT_IIB.L1_GETS::total           20                      
system.ruby.L2Cache_Controller.MT_IIB.WB_Data |         176      7.62%      7.62% |          71      3.07%     10.69% |          68      2.94%     13.63% |          61      2.64%     16.27% |          69      2.99%     19.26% |          69      2.99%     22.24% |          69      2.99%     25.23% |          69      2.99%     28.21% |          69      2.99%     31.20% |          69      2.99%     34.18% |          68      2.94%     37.13% |          67      2.90%     40.03% |          73      3.16%     43.18% |          69      2.99%     46.17% |          69      2.99%     49.16% |          69      2.99%     52.14% |          69      2.99%     55.13% |          69      2.99%     58.11% |          70      3.03%     61.14% |          69      2.99%     64.13% |          69      2.99%     67.11% |          69      2.99%     70.10% |          71      3.07%     73.17% |          69      2.99%     76.16% |          69      2.99%     79.14% |          69      2.99%     82.13% |          69      2.99%     85.11% |          69      2.99%     88.10% |          71      3.07%     91.17% |          66      2.86%     94.03% |          69      2.99%     97.01% |          69      2.99%    100.00%
system.ruby.L2Cache_Controller.MT_IIB.WB_Data::total         2311                      
system.ruby.L2Cache_Controller.MT_IIB.WB_Data_clean |         593     96.74%     96.74% |           4      0.65%     97.39% |           3      0.49%     97.88% |           3      0.49%     98.37% |           0      0.00%     98.37% |           0      0.00%     98.37% |           0      0.00%     98.37% |           0      0.00%     98.37% |           0      0.00%     98.37% |           0      0.00%     98.37% |           0      0.00%     98.37% |           0      0.00%     98.37% |           0      0.00%     98.37% |           0      0.00%     98.37% |           1      0.16%     98.53% |           0      0.00%     98.53% |           1      0.16%     98.69% |           3      0.49%     99.18% |           3      0.49%     99.67% |           2      0.33%    100.00% |           0      0.00%    100.00% |           0      0.00%    100.00% |           0      0.00%    100.00% |           0      0.00%    100.00% |           0      0.00%    100.00% |           0      0.00%    100.00% |           0      0.00%    100.00% |           0      0.00%    100.00% |           0      0.00%    100.00% |           0      0.00%    100.00% |           0      0.00%    100.00% |           0      0.00%    100.00%
system.ruby.L2Cache_Controller.MT_IIB.WB_Data_clean::total          613                      
system.ruby.L2Cache_Controller.MT_IIB.Unblock |           0      0.00%      0.00% |           0      0.00%      0.00% |           1      5.88%      5.88% |           8     47.06%     52.94% |           0      0.00%     52.94% |           0      0.00%     52.94% |           0      0.00%     52.94% |           0      0.00%     52.94% |           0      0.00%     52.94% |           0      0.00%     52.94% |           1      5.88%     58.82% |           2     11.76%     70.59% |           0      0.00%     70.59% |           0      0.00%     70.59% |           0      0.00%     70.59% |           0      0.00%     70.59% |           0      0.00%     70.59% |           0      0.00%     70.59% |           0      0.00%     70.59% |           1      5.88%     76.47% |           0      0.00%     76.47% |           0      0.00%     76.47% |           0      0.00%     76.47% |           0      0.00%     76.47% |           0      0.00%     76.47% |           1      5.88%     82.35% |           0      0.00%     82.35% |           0      0.00%     82.35% |           0      0.00%     82.35% |           3     17.65%    100.00% |           0      0.00%    100.00% |           0      0.00%    100.00%
system.ruby.L2Cache_Controller.MT_IIB.Unblock::total           17                      
system.ruby.L2Cache_Controller.MT_IB.WB_Data |           0      0.00%      0.00% |           0      0.00%      0.00% |           1      5.88%      5.88% |           8     47.06%     52.94% |           0      0.00%     52.94% |           0      0.00%     52.94% |           0      0.00%     52.94% |           0      0.00%     52.94% |           0      0.00%     52.94% |           0      0.00%     52.94% |           1      5.88%     58.82% |           2     11.76%     70.59% |           0      0.00%     70.59% |           0      0.00%     70.59% |           0      0.00%     70.59% |           0      0.00%     70.59% |           0      0.00%     70.59% |           0      0.00%     70.59% |           0      0.00%     70.59% |           1      5.88%     76.47% |           0      0.00%     76.47% |           0      0.00%     76.47% |           0      0.00%     76.47% |           0      0.00%     76.47% |           0      0.00%     76.47% |           1      5.88%     82.35% |           0      0.00%     82.35% |           0      0.00%     82.35% |           0      0.00%     82.35% |           3     17.65%    100.00% |           0      0.00%    100.00% |           0      0.00%    100.00%
system.ruby.L2Cache_Controller.MT_IB.WB_Data::total           17                      
system.ruby.L2Cache_Controller.MT_SB.L1_GETS |           0      0.00%      0.00% |           2     66.67%     66.67% |           0      0.00%     66.67% |           1     33.33%    100.00% |           0      0.00%    100.00% |           0      0.00%    100.00% |           0      0.00%    100.00% |           0      0.00%    100.00% |           0      0.00%    100.00% |           0      0.00%    100.00% |           0      0.00%    100.00% |           0      0.00%    100.00% |           0      0.00%    100.00% |           0      0.00%    100.00% |           0      0.00%    100.00% |           0      0.00%    100.00% |           0      0.00%    100.00% |           0      0.00%    100.00% |           0      0.00%    100.00% |           0      0.00%    100.00% |           0      0.00%    100.00% |           0      0.00%    100.00% |           0      0.00%    100.00% |           0      0.00%    100.00% |           0      0.00%    100.00% |           0      0.00%    100.00% |           0      0.00%    100.00% |           0      0.00%    100.00% |           0      0.00%    100.00% |           0      0.00%    100.00% |           0      0.00%    100.00% |           0      0.00%    100.00%
system.ruby.L2Cache_Controller.MT_SB.L1_GETS::total            3                      
system.ruby.L2Cache_Controller.MT_SB.L1_PUTX |           1    100.00%    100.00% |           0      0.00%    100.00% |           0      0.00%    100.00% |           0      0.00%    100.00% |           0      0.00%    100.00% |           0      0.00%    100.00% |           0      0.00%    100.00% |           0      0.00%    100.00% |           0      0.00%    100.00% |           0      0.00%    100.00% |           0      0.00%    100.00% |           0      0.00%    100.00% |           0      0.00%    100.00% |           0      0.00%    100.00% |           0      0.00%    100.00% |           0      0.00%    100.00% |           0      0.00%    100.00% |           0      0.00%    100.00% |           0      0.00%    100.00% |           0      0.00%    100.00% |           0      0.00%    100.00% |           0      0.00%    100.00% |           0      0.00%    100.00% |           0      0.00%    100.00% |           0      0.00%    100.00% |           0      0.00%    100.00% |           0      0.00%    100.00% |           0      0.00%    100.00% |           0      0.00%    100.00% |           0      0.00%    100.00% |           0      0.00%    100.00% |           0      0.00%    100.00%
system.ruby.L2Cache_Controller.MT_SB.L1_PUTX::total            1                      
system.ruby.L2Cache_Controller.MT_SB.Unblock |         769     26.30%     26.30% |          75      2.56%     28.86% |          71      2.43%     31.29% |          64      2.19%     33.48% |          69      2.36%     35.84% |          69      2.36%     38.20% |          69      2.36%     40.56% |          69      2.36%     42.92% |          69      2.36%     45.28% |          69      2.36%     47.64% |          68      2.33%     49.97% |          67      2.29%     52.26% |          73      2.50%     54.75% |          69      2.36%     57.11% |          70      2.39%     59.51% |          69      2.36%     61.87% |          70      2.39%     64.26% |          72      2.46%     66.72% |          73      2.50%     69.22% |          71      2.43%     71.65% |          69      2.36%     74.01% |          69      2.36%     76.37% |          71      2.43%     78.80% |          69      2.36%     81.16% |          69      2.36%     83.52% |          69      2.36%     85.88% |          69      2.36%     88.24% |          69      2.36%     90.60% |          71      2.43%     93.02% |          66      2.26%     95.28% |          69      2.36%     97.64% |          69      2.36%    100.00%
system.ruby.L2Cache_Controller.MT_SB.Unblock::total         2924                      
system.ruby.SimicsNetworkPortInterface_Controller.MessageSend |       76923      4.31%      4.31% |      892177     50.00%     54.31% |      109326      6.13%     60.44% |      102593      5.75%     66.19% |      101142      5.67%     71.86% |      102859      5.76%     77.62% |      100963      5.66%     83.28% |      103022      5.77%     89.05% |       96908      5.43%     94.48% |       98441      5.52%    100.00% |           0      0.00%    100.00% |           0      0.00%    100.00% |           0      0.00%    100.00% |           0      0.00%    100.00% |           0      0.00%    100.00% |           0      0.00%    100.00% |           0      0.00%    100.00% |           0      0.00%    100.00% |           0      0.00%    100.00% |           0      0.00%    100.00% |           0      0.00%    100.00% |           0      0.00%    100.00% |           0      0.00%    100.00% |           0      0.00%    100.00% |           0      0.00%    100.00% |           0      0.00%    100.00% |           0      0.00%    100.00% |           0      0.00%    100.00% |           0      0.00%    100.00% |           0      0.00%    100.00% |           0      0.00%    100.00% |           0      0.00%    100.00%
system.ruby.SimicsNetworkPortInterface_Controller.MessageSend::total      1784354                      
system.ruby.SimicsNetworkPortInterface_Controller.MessageRecv |       76923      4.31%      4.31% |      892177     50.00%     54.31% |      109326      6.13%     60.44% |      102593      5.75%     66.19% |      101142      5.67%     71.86% |      102859      5.76%     77.62% |      100963      5.66%     83.28% |      103022      5.77%     89.05% |       96908      5.43%     94.48% |       98441      5.52%    100.00% |           0      0.00%    100.00% |           0      0.00%    100.00% |           0      0.00%    100.00% |           0      0.00%    100.00% |           0      0.00%    100.00% |           0      0.00%    100.00% |           0      0.00%    100.00% |           0      0.00%    100.00% |           0      0.00%    100.00% |           0      0.00%    100.00% |           0      0.00%    100.00% |           0      0.00%    100.00% |           0      0.00%    100.00% |           0      0.00%    100.00% |           0      0.00%    100.00% |           0      0.00%    100.00% |           0      0.00%    100.00% |           0      0.00%    100.00% |           0      0.00%    100.00% |           0      0.00%    100.00% |           0      0.00%    100.00% |           0      0.00%    100.00%
system.ruby.SimicsNetworkPortInterface_Controller.MessageRecv::total      1784354                      
system.ruby.SimicsNetworkPortInterface_Controller.A.MessageSend |       76923      4.31%      4.31% |      892177     50.00%     54.31% |      109326      6.13%     60.44% |      102593      5.75%     66.19% |      101142      5.67%     71.86% |      102859      5.76%     77.62% |      100963      5.66%     83.28% |      103022      5.77%     89.05% |       96908      5.43%     94.48% |       98441      5.52%    100.00% |           0      0.00%    100.00% |           0      0.00%    100.00% |           0      0.00%    100.00% |           0      0.00%    100.00% |           0      0.00%    100.00% |           0      0.00%    100.00% |           0      0.00%    100.00% |           0      0.00%    100.00% |           0      0.00%    100.00% |           0      0.00%    100.00% |           0      0.00%    100.00% |           0      0.00%    100.00% |           0      0.00%    100.00% |           0      0.00%    100.00% |           0      0.00%    100.00% |           0      0.00%    100.00% |           0      0.00%    100.00% |           0      0.00%    100.00% |           0      0.00%    100.00% |           0      0.00%    100.00% |           0      0.00%    100.00% |           0      0.00%    100.00%
system.ruby.SimicsNetworkPortInterface_Controller.A.MessageSend::total      1784354                      
system.ruby.SimicsNetworkPortInterface_Controller.A.MessageRecv |       76923      4.31%      4.31% |      892177     50.00%     54.31% |      109326      6.13%     60.44% |      102593      5.75%     66.19% |      101142      5.67%     71.86% |      102859      5.76%     77.62% |      100963      5.66%     83.28% |      103022      5.77%     89.05% |       96908      5.43%     94.48% |       98441      5.52%    100.00% |           0      0.00%    100.00% |           0      0.00%    100.00% |           0      0.00%    100.00% |           0      0.00%    100.00% |           0      0.00%    100.00% |           0      0.00%    100.00% |           0      0.00%    100.00% |           0      0.00%    100.00% |           0      0.00%    100.00% |           0      0.00%    100.00% |           0      0.00%    100.00% |           0      0.00%    100.00% |           0      0.00%    100.00% |           0      0.00%    100.00% |           0      0.00%    100.00% |           0      0.00%    100.00% |           0      0.00%    100.00% |           0      0.00%    100.00% |           0      0.00%    100.00% |           0      0.00%    100.00% |           0      0.00%    100.00% |           0      0.00%    100.00%
system.ruby.SimicsNetworkPortInterface_Controller.A.MessageRecv::total      1784354                      
system.switch_cpus.kern.inst.arm                    0                       # number of arm instructions executed
system.switch_cpus.kern.inst.quiesce                0                       # number of quiesce instructions executed

---------- End Simulation Statistics   ----------
