
---------- Begin Simulation Statistics ----------
sim_seconds                                  0.119588                       # Number of seconds simulated
sim_ticks                                119587600500                       # Number of ticks simulated
final_tick                               5295755679000                       # Number of ticks from beginning of simulation (restored from checkpoints and never reset)
sim_freq                                 1000000000000                       # Frequency of simulated ticks
host_inst_rate                                  43865                       # Simulator instruction rate (inst/s)
host_op_rate                                    77692                       # Simulator op (including micro ops) rate (op/s)
host_tick_rate                               96108440                       # Simulator tick rate (ticks/s)
host_mem_usage                                6264288                       # Number of bytes of host memory used
host_seconds                                  1244.30                       # Real time elapsed on the host
sim_insts                                    54581743                       # Number of instructions simulated
sim_ops                                      96672264                       # Number of ops (including micro ops) simulated
system.voltage_domain.voltage                       1                       # Voltage in Volts
system.clk_domain.clock                           500                       # Clock period in ticks
system.mem_ctrls0.bytes_read::ruby.dir_cntrl0     42171584                       # Number of bytes read from this memory
system.mem_ctrls0.bytes_read::total          42171584                       # Number of bytes read from this memory
system.mem_ctrls0.bytes_written::ruby.dir_cntrl0     19911232                       # Number of bytes written to this memory
system.mem_ctrls0.bytes_written::total       19911232                       # Number of bytes written to this memory
system.mem_ctrls0.num_reads::ruby.dir_cntrl0       658931                       # Number of read requests responded to by this memory
system.mem_ctrls0.num_reads::total             658931                       # Number of read requests responded to by this memory
system.mem_ctrls0.num_writes::ruby.dir_cntrl0       311113                       # Number of write requests responded to by this memory
system.mem_ctrls0.num_writes::total            311113                       # Number of write requests responded to by this memory
system.mem_ctrls0.bw_read::ruby.dir_cntrl0    352641777                       # Total read bandwidth from this memory (bytes/s)
system.mem_ctrls0.bw_read::total            352641777                       # Total read bandwidth from this memory (bytes/s)
system.mem_ctrls0.bw_write::ruby.dir_cntrl0    166499135                       # Write bandwidth from this memory (bytes/s)
system.mem_ctrls0.bw_write::total           166499135                       # Write bandwidth from this memory (bytes/s)
system.mem_ctrls0.bw_total::ruby.dir_cntrl0    519140912                       # Total bandwidth to/from this memory (bytes/s)
system.mem_ctrls0.bw_total::total           519140912                       # Total bandwidth to/from this memory (bytes/s)
system.mem_ctrls0.readReqs                     658931                       # Number of read requests accepted
system.mem_ctrls0.writeReqs                    311113                       # Number of write requests accepted
system.mem_ctrls0.readBursts                   658931                       # Number of DRAM read bursts, including those serviced by the write queue
system.mem_ctrls0.writeBursts                  311113                       # Number of DRAM write bursts, including those merged in the write queue
system.mem_ctrls0.bytesReadDRAM              42152448                       # Total number of bytes read from DRAM
system.mem_ctrls0.bytesReadWrQ                  19136                       # Total number of bytes read from write queue
system.mem_ctrls0.bytesWritten               19911040                       # Total number of bytes written to DRAM
system.mem_ctrls0.bytesReadSys               42171584                       # Total read bytes from the system interface side
system.mem_ctrls0.bytesWrittenSys            19911232                       # Total written bytes from the system interface side
system.mem_ctrls0.servicedByWrQ                   299                       # Number of DRAM read bursts serviced by the write queue
system.mem_ctrls0.mergedWrBursts                    0                       # Number of DRAM write bursts merged with an existing one
system.mem_ctrls0.neitherReadNorWriteReqs            0                       # Number of requests that are neither read nor write
system.mem_ctrls0.perBankRdBursts::0            41109                       # Per bank write bursts
system.mem_ctrls0.perBankRdBursts::1            40976                       # Per bank write bursts
system.mem_ctrls0.perBankRdBursts::2            40511                       # Per bank write bursts
system.mem_ctrls0.perBankRdBursts::3            41281                       # Per bank write bursts
system.mem_ctrls0.perBankRdBursts::4            41000                       # Per bank write bursts
system.mem_ctrls0.perBankRdBursts::5            41421                       # Per bank write bursts
system.mem_ctrls0.perBankRdBursts::6            42025                       # Per bank write bursts
system.mem_ctrls0.perBankRdBursts::7            41643                       # Per bank write bursts
system.mem_ctrls0.perBankRdBursts::8            40804                       # Per bank write bursts
system.mem_ctrls0.perBankRdBursts::9            40743                       # Per bank write bursts
system.mem_ctrls0.perBankRdBursts::10           40496                       # Per bank write bursts
system.mem_ctrls0.perBankRdBursts::11           41421                       # Per bank write bursts
system.mem_ctrls0.perBankRdBursts::12           40888                       # Per bank write bursts
system.mem_ctrls0.perBankRdBursts::13           41254                       # Per bank write bursts
system.mem_ctrls0.perBankRdBursts::14           41552                       # Per bank write bursts
system.mem_ctrls0.perBankRdBursts::15           41508                       # Per bank write bursts
system.mem_ctrls0.perBankWrBursts::0            19353                       # Per bank write bursts
system.mem_ctrls0.perBankWrBursts::1            19363                       # Per bank write bursts
system.mem_ctrls0.perBankWrBursts::2            19287                       # Per bank write bursts
system.mem_ctrls0.perBankWrBursts::3            19435                       # Per bank write bursts
system.mem_ctrls0.perBankWrBursts::4            19436                       # Per bank write bursts
system.mem_ctrls0.perBankWrBursts::5            19518                       # Per bank write bursts
system.mem_ctrls0.perBankWrBursts::6            19715                       # Per bank write bursts
system.mem_ctrls0.perBankWrBursts::7            19760                       # Per bank write bursts
system.mem_ctrls0.perBankWrBursts::8            19272                       # Per bank write bursts
system.mem_ctrls0.perBankWrBursts::9            19444                       # Per bank write bursts
system.mem_ctrls0.perBankWrBursts::10           19223                       # Per bank write bursts
system.mem_ctrls0.perBankWrBursts::11           19380                       # Per bank write bursts
system.mem_ctrls0.perBankWrBursts::12           19382                       # Per bank write bursts
system.mem_ctrls0.perBankWrBursts::13           19409                       # Per bank write bursts
system.mem_ctrls0.perBankWrBursts::14           19613                       # Per bank write bursts
system.mem_ctrls0.perBankWrBursts::15           19520                       # Per bank write bursts
system.mem_ctrls0.numRdRetry                    61661                       # Number of times read queue was full causing retry
system.mem_ctrls0.numWrRetry                    12564                       # Number of times write queue was full causing retry
system.mem_ctrls0.totGap                 119586938500                       # Total gap between requests
system.mem_ctrls0.readPktSize::0                    0                       # Read request sizes (log2)
system.mem_ctrls0.readPktSize::1                    0                       # Read request sizes (log2)
system.mem_ctrls0.readPktSize::2                    0                       # Read request sizes (log2)
system.mem_ctrls0.readPktSize::3                    0                       # Read request sizes (log2)
system.mem_ctrls0.readPktSize::4                    0                       # Read request sizes (log2)
system.mem_ctrls0.readPktSize::5                    0                       # Read request sizes (log2)
system.mem_ctrls0.readPktSize::6               658931                       # Read request sizes (log2)
system.mem_ctrls0.writePktSize::0                   0                       # Write request sizes (log2)
system.mem_ctrls0.writePktSize::1                   0                       # Write request sizes (log2)
system.mem_ctrls0.writePktSize::2                   0                       # Write request sizes (log2)
system.mem_ctrls0.writePktSize::3                   0                       # Write request sizes (log2)
system.mem_ctrls0.writePktSize::4                   0                       # Write request sizes (log2)
system.mem_ctrls0.writePktSize::5                   0                       # Write request sizes (log2)
system.mem_ctrls0.writePktSize::6              311113                       # Write request sizes (log2)
system.mem_ctrls0.rdQLenPdf::0                 177842                       # What read queue length does an incoming req see
system.mem_ctrls0.rdQLenPdf::1                  23273                       # What read queue length does an incoming req see
system.mem_ctrls0.rdQLenPdf::2                  22187                       # What read queue length does an incoming req see
system.mem_ctrls0.rdQLenPdf::3                  22700                       # What read queue length does an incoming req see
system.mem_ctrls0.rdQLenPdf::4                  23148                       # What read queue length does an incoming req see
system.mem_ctrls0.rdQLenPdf::5                  23053                       # What read queue length does an incoming req see
system.mem_ctrls0.rdQLenPdf::6                  22740                       # What read queue length does an incoming req see
system.mem_ctrls0.rdQLenPdf::7                  21944                       # What read queue length does an incoming req see
system.mem_ctrls0.rdQLenPdf::8                  21027                       # What read queue length does an incoming req see
system.mem_ctrls0.rdQLenPdf::9                  20236                       # What read queue length does an incoming req see
system.mem_ctrls0.rdQLenPdf::10                 19091                       # What read queue length does an incoming req see
system.mem_ctrls0.rdQLenPdf::11                 17835                       # What read queue length does an incoming req see
system.mem_ctrls0.rdQLenPdf::12                 16902                       # What read queue length does an incoming req see
system.mem_ctrls0.rdQLenPdf::13                 15557                       # What read queue length does an incoming req see
system.mem_ctrls0.rdQLenPdf::14                 14335                       # What read queue length does an incoming req see
system.mem_ctrls0.rdQLenPdf::15                 13176                       # What read queue length does an incoming req see
system.mem_ctrls0.rdQLenPdf::16                 12067                       # What read queue length does an incoming req see
system.mem_ctrls0.rdQLenPdf::17                 11045                       # What read queue length does an incoming req see
system.mem_ctrls0.rdQLenPdf::18                 10202                       # What read queue length does an incoming req see
system.mem_ctrls0.rdQLenPdf::19                  9587                       # What read queue length does an incoming req see
system.mem_ctrls0.rdQLenPdf::20                  8842                       # What read queue length does an incoming req see
system.mem_ctrls0.rdQLenPdf::21                  8241                       # What read queue length does an incoming req see
system.mem_ctrls0.rdQLenPdf::22                  7740                       # What read queue length does an incoming req see
system.mem_ctrls0.rdQLenPdf::23                  7019                       # What read queue length does an incoming req see
system.mem_ctrls0.rdQLenPdf::24                  6635                       # What read queue length does an incoming req see
system.mem_ctrls0.rdQLenPdf::25                  6331                       # What read queue length does an incoming req see
system.mem_ctrls0.rdQLenPdf::26                  6210                       # What read queue length does an incoming req see
system.mem_ctrls0.rdQLenPdf::27                  5896                       # What read queue length does an incoming req see
system.mem_ctrls0.rdQLenPdf::28                  5625                       # What read queue length does an incoming req see
system.mem_ctrls0.rdQLenPdf::29                  5435                       # What read queue length does an incoming req see
system.mem_ctrls0.rdQLenPdf::30                  5435                       # What read queue length does an incoming req see
system.mem_ctrls0.rdQLenPdf::31                 67276                       # What read queue length does an incoming req see
system.mem_ctrls0.wrQLenPdf::0                  44601                       # What write queue length does an incoming req see
system.mem_ctrls0.wrQLenPdf::1                  49808                       # What write queue length does an incoming req see
system.mem_ctrls0.wrQLenPdf::2                  52560                       # What write queue length does an incoming req see
system.mem_ctrls0.wrQLenPdf::3                  53763                       # What write queue length does an incoming req see
system.mem_ctrls0.wrQLenPdf::4                  54049                       # What write queue length does an incoming req see
system.mem_ctrls0.wrQLenPdf::5                  17292                       # What write queue length does an incoming req see
system.mem_ctrls0.wrQLenPdf::6                  16165                       # What write queue length does an incoming req see
system.mem_ctrls0.wrQLenPdf::7                  22875                       # What write queue length does an incoming req see
system.mem_ctrls0.bytesPerActivate::samples       313213                       # Bytes accessed per row activation
system.mem_ctrls0.bytesPerActivate::mean   198.147382                       # Bytes accessed per row activation
system.mem_ctrls0.bytesPerActivate::gmean   151.710627                       # Bytes accessed per row activation
system.mem_ctrls0.bytesPerActivate::stdev   150.383391                       # Bytes accessed per row activation
system.mem_ctrls0.bytesPerActivate::0-127       104531     33.37%     33.37% # Bytes accessed per row activation
system.mem_ctrls0.bytesPerActivate::128-255        97205     31.03%     64.41% # Bytes accessed per row activation
system.mem_ctrls0.bytesPerActivate::256-383        72933     23.29%     87.69% # Bytes accessed per row activation
system.mem_ctrls0.bytesPerActivate::384-511        18998      6.07%     93.76% # Bytes accessed per row activation
system.mem_ctrls0.bytesPerActivate::512-639        14301      4.57%     98.33% # Bytes accessed per row activation
system.mem_ctrls0.bytesPerActivate::640-767         2711      0.87%     99.19% # Bytes accessed per row activation
system.mem_ctrls0.bytesPerActivate::768-895         1307      0.42%     99.61% # Bytes accessed per row activation
system.mem_ctrls0.bytesPerActivate::896-1023          802      0.26%     99.86% # Bytes accessed per row activation
system.mem_ctrls0.bytesPerActivate::1024-1151          425      0.14%    100.00% # Bytes accessed per row activation
system.mem_ctrls0.bytesPerActivate::total       313213                       # Bytes accessed per row activation
system.mem_ctrls0.rdPerTurnAround::samples        46553                       # Reads before turning the bus around for writes
system.mem_ctrls0.rdPerTurnAround::mean     14.147896                       # Reads before turning the bus around for writes
system.mem_ctrls0.rdPerTurnAround::stdev    30.406682                       # Reads before turning the bus around for writes
system.mem_ctrls0.rdPerTurnAround::0-127        46268     99.39%     99.39% # Reads before turning the bus around for writes
system.mem_ctrls0.rdPerTurnAround::128-255          214      0.46%     99.85% # Reads before turning the bus around for writes
system.mem_ctrls0.rdPerTurnAround::256-383           49      0.11%     99.95% # Reads before turning the bus around for writes
system.mem_ctrls0.rdPerTurnAround::384-511           11      0.02%     99.98% # Reads before turning the bus around for writes
system.mem_ctrls0.rdPerTurnAround::512-639            7      0.02%     99.99% # Reads before turning the bus around for writes
system.mem_ctrls0.rdPerTurnAround::768-895            3      0.01%    100.00% # Reads before turning the bus around for writes
system.mem_ctrls0.rdPerTurnAround::3968-4095            1      0.00%    100.00% # Reads before turning the bus around for writes
system.mem_ctrls0.rdPerTurnAround::total        46553                       # Reads before turning the bus around for writes
system.mem_ctrls0.wrPerTurnAround::samples        46553                       # Writes before turning the bus around for reads
system.mem_ctrls0.wrPerTurnAround::mean      6.682921                       # Writes before turning the bus around for reads
system.mem_ctrls0.wrPerTurnAround::gmean     6.166258                       # Writes before turning the bus around for reads
system.mem_ctrls0.wrPerTurnAround::stdev     3.192635                       # Writes before turning the bus around for reads
system.mem_ctrls0.wrPerTurnAround::4-7          36076     77.49%     77.49% # Writes before turning the bus around for reads
system.mem_ctrls0.wrPerTurnAround::8-11          5208     11.19%     88.68% # Writes before turning the bus around for reads
system.mem_ctrls0.wrPerTurnAround::12-15         2822      6.06%     94.74% # Writes before turning the bus around for reads
system.mem_ctrls0.wrPerTurnAround::16-19         2447      5.26%    100.00% # Writes before turning the bus around for reads
system.mem_ctrls0.wrPerTurnAround::total        46553                       # Writes before turning the bus around for reads
system.mem_ctrls0.totQLat                 74280411718                       # Total ticks spent queuing
system.mem_ctrls0.totMemAccLat            86629761718                       # Total ticks spent from burst creation until serviced by the DRAM
system.mem_ctrls0.totBusLat                3293160000                       # Total ticks spent in databus transfers
system.mem_ctrls0.avgQLat                   112779.84                       # Average queueing delay per DRAM burst
system.mem_ctrls0.avgBusLat                   5000.00                       # Average bus latency per DRAM burst
system.mem_ctrls0.avgMemAccLat              131529.84                       # Average memory access latency per DRAM burst
system.mem_ctrls0.avgRdBW                      352.48                       # Average DRAM read bandwidth in MiByte/s
system.mem_ctrls0.avgWrBW                      166.50                       # Average achieved write bandwidth in MiByte/s
system.mem_ctrls0.avgRdBWSys                   352.64                       # Average system read bandwidth in MiByte/s
system.mem_ctrls0.avgWrBWSys                   166.50                       # Average system write bandwidth in MiByte/s
system.mem_ctrls0.peakBW                     12800.00                       # Theoretical peak bandwidth in MiByte/s
system.mem_ctrls0.busUtil                        4.05                       # Data bus utilization in percentage
system.mem_ctrls0.busUtilRead                    2.75                       # Data bus utilization in percentage for reads
system.mem_ctrls0.busUtilWrite                   1.30                       # Data bus utilization in percentage for writes
system.mem_ctrls0.avgRdQLen                      1.75                       # Average read queue length when enqueuing
system.mem_ctrls0.avgWrQLen                      3.04                       # Average write queue length when enqueuing
system.mem_ctrls0.readRowHits                  486448                       # Number of row buffer hits during reads
system.mem_ctrls0.writeRowHits                 170069                       # Number of row buffer hits during writes
system.mem_ctrls0.readRowHitRate                73.86                       # Row buffer hit rate for reads
system.mem_ctrls0.writeRowHitRate               54.66                       # Row buffer hit rate for writes
system.mem_ctrls0.avgGap                    123279.91                       # Average gap between requests
system.mem_ctrls0.pageHitRate                   67.70                       # Row buffer hit rate, read and write combined
system.mem_ctrls0.memoryStateTime::IDLE   20215831750                       # Time in different power states
system.mem_ctrls0.memoryStateTime::REF     3993080000                       # Time in different power states
system.mem_ctrls0.memoryStateTime::PRE_PDN            0                       # Time in different power states
system.mem_ctrls0.memoryStateTime::ACT    95372595000                       # Time in different power states
system.mem_ctrls0.memoryStateTime::ACT_PDN            0                       # Time in different power states
system.mem_ctrls0.actEnergy::0             1189649160                       # Energy for activate commands per rank (pJ)
system.mem_ctrls0.actEnergy::1             1178074800                       # Energy for activate commands per rank (pJ)
system.mem_ctrls0.preEnergy::0              649114125                       # Energy for precharge commands per rank (pJ)
system.mem_ctrls0.preEnergy::1              642798750                       # Energy for precharge commands per rank (pJ)
system.mem_ctrls0.readEnergy::0            2573539800                       # Energy for read commands per rank (pJ)
system.mem_ctrls0.readEnergy::1            2563345200                       # Energy for read commands per rank (pJ)
system.mem_ctrls0.writeEnergy::0           1009946880                       # Energy for write commands per rank (pJ)
system.mem_ctrls0.writeEnergy::1           1005948720                       # Energy for write commands per rank (pJ)
system.mem_ctrls0.refreshEnergy::0         7810464480                       # Energy for refresh commands per rank (pJ)
system.mem_ctrls0.refreshEnergy::1         7810464480                       # Energy for refresh commands per rank (pJ)
system.mem_ctrls0.actBackEnergy::0        49279993245                       # Energy for active background per rank (pJ)
system.mem_ctrls0.actBackEnergy::1        48808110195                       # Energy for active background per rank (pJ)
system.mem_ctrls0.preBackEnergy::0        28520832000                       # Energy for precharge background per rank (pJ)
system.mem_ctrls0.preBackEnergy::1        28934764500                       # Energy for precharge background per rank (pJ)
system.mem_ctrls0.totalEnergy::0          91033539690                       # Total energy per rank (pJ)
system.mem_ctrls0.totalEnergy::1          90943506645                       # Total energy per rank (pJ)
system.mem_ctrls0.averagePower::0          761.267792                       # Core power per rank (mW)
system.mem_ctrls0.averagePower::1          760.514891                       # Core power per rank (mW)
system.mem_ctrls1.bytes_read::ruby.dir_cntrl1     41626560                       # Number of bytes read from this memory
system.mem_ctrls1.bytes_read::total          41626560                       # Number of bytes read from this memory
system.mem_ctrls1.bytes_written::ruby.dir_cntrl1     19369024                       # Number of bytes written to this memory
system.mem_ctrls1.bytes_written::total       19369024                       # Number of bytes written to this memory
system.mem_ctrls1.num_reads::ruby.dir_cntrl1       650415                       # Number of read requests responded to by this memory
system.mem_ctrls1.num_reads::total             650415                       # Number of read requests responded to by this memory
system.mem_ctrls1.num_writes::ruby.dir_cntrl1       302641                       # Number of write requests responded to by this memory
system.mem_ctrls1.num_writes::total            302641                       # Number of write requests responded to by this memory
system.mem_ctrls1.bw_read::ruby.dir_cntrl1    348084248                       # Total read bandwidth from this memory (bytes/s)
system.mem_ctrls1.bw_read::total            348084248                       # Total read bandwidth from this memory (bytes/s)
system.mem_ctrls1.bw_write::ruby.dir_cntrl1    161965153                       # Write bandwidth from this memory (bytes/s)
system.mem_ctrls1.bw_write::total           161965153                       # Write bandwidth from this memory (bytes/s)
system.mem_ctrls1.bw_total::ruby.dir_cntrl1    510049401                       # Total bandwidth to/from this memory (bytes/s)
system.mem_ctrls1.bw_total::total           510049401                       # Total bandwidth to/from this memory (bytes/s)
system.mem_ctrls1.readReqs                     650415                       # Number of read requests accepted
system.mem_ctrls1.writeReqs                    302641                       # Number of write requests accepted
system.mem_ctrls1.readBursts                   650415                       # Number of DRAM read bursts, including those serviced by the write queue
system.mem_ctrls1.writeBursts                  302641                       # Number of DRAM write bursts, including those merged in the write queue
system.mem_ctrls1.bytesReadDRAM              41607232                       # Total number of bytes read from DRAM
system.mem_ctrls1.bytesReadWrQ                  19328                       # Total number of bytes read from write queue
system.mem_ctrls1.bytesWritten               19369024                       # Total number of bytes written to DRAM
system.mem_ctrls1.bytesReadSys               41626560                       # Total read bytes from the system interface side
system.mem_ctrls1.bytesWrittenSys            19369024                       # Total written bytes from the system interface side
system.mem_ctrls1.servicedByWrQ                   302                       # Number of DRAM read bursts serviced by the write queue
system.mem_ctrls1.mergedWrBursts                    0                       # Number of DRAM write bursts merged with an existing one
system.mem_ctrls1.neitherReadNorWriteReqs            0                       # Number of requests that are neither read nor write
system.mem_ctrls1.perBankRdBursts::0            40575                       # Per bank write bursts
system.mem_ctrls1.perBankRdBursts::1            40530                       # Per bank write bursts
system.mem_ctrls1.perBankRdBursts::2            40066                       # Per bank write bursts
system.mem_ctrls1.perBankRdBursts::3            40628                       # Per bank write bursts
system.mem_ctrls1.perBankRdBursts::4            40724                       # Per bank write bursts
system.mem_ctrls1.perBankRdBursts::5            40433                       # Per bank write bursts
system.mem_ctrls1.perBankRdBursts::6            41843                       # Per bank write bursts
system.mem_ctrls1.perBankRdBursts::7            41091                       # Per bank write bursts
system.mem_ctrls1.perBankRdBursts::8            40315                       # Per bank write bursts
system.mem_ctrls1.perBankRdBursts::9            40291                       # Per bank write bursts
system.mem_ctrls1.perBankRdBursts::10           39994                       # Per bank write bursts
system.mem_ctrls1.perBankRdBursts::11           40794                       # Per bank write bursts
system.mem_ctrls1.perBankRdBursts::12           40525                       # Per bank write bursts
system.mem_ctrls1.perBankRdBursts::13           40326                       # Per bank write bursts
system.mem_ctrls1.perBankRdBursts::14           41006                       # Per bank write bursts
system.mem_ctrls1.perBankRdBursts::15           40972                       # Per bank write bursts
system.mem_ctrls1.perBankWrBursts::0            18848                       # Per bank write bursts
system.mem_ctrls1.perBankWrBursts::1            18876                       # Per bank write bursts
system.mem_ctrls1.perBankWrBursts::2            18810                       # Per bank write bursts
system.mem_ctrls1.perBankWrBursts::3            18921                       # Per bank write bursts
system.mem_ctrls1.perBankWrBursts::4            19005                       # Per bank write bursts
system.mem_ctrls1.perBankWrBursts::5            18915                       # Per bank write bursts
system.mem_ctrls1.perBankWrBursts::6            19199                       # Per bank write bursts
system.mem_ctrls1.perBankWrBursts::7            19183                       # Per bank write bursts
system.mem_ctrls1.perBankWrBursts::8            18738                       # Per bank write bursts
system.mem_ctrls1.perBankWrBursts::9            18943                       # Per bank write bursts
system.mem_ctrls1.perBankWrBursts::10           18662                       # Per bank write bursts
system.mem_ctrls1.perBankWrBursts::11           18839                       # Per bank write bursts
system.mem_ctrls1.perBankWrBursts::12           18894                       # Per bank write bursts
system.mem_ctrls1.perBankWrBursts::13           18806                       # Per bank write bursts
system.mem_ctrls1.perBankWrBursts::14           19049                       # Per bank write bursts
system.mem_ctrls1.perBankWrBursts::15           18953                       # Per bank write bursts
system.mem_ctrls1.numRdRetry                    56065                       # Number of times read queue was full causing retry
system.mem_ctrls1.numWrRetry                    12063                       # Number of times write queue was full causing retry
system.mem_ctrls1.totGap                 119586686500                       # Total gap between requests
system.mem_ctrls1.readPktSize::0                    0                       # Read request sizes (log2)
system.mem_ctrls1.readPktSize::1                    0                       # Read request sizes (log2)
system.mem_ctrls1.readPktSize::2                    0                       # Read request sizes (log2)
system.mem_ctrls1.readPktSize::3                    0                       # Read request sizes (log2)
system.mem_ctrls1.readPktSize::4                    0                       # Read request sizes (log2)
system.mem_ctrls1.readPktSize::5                    0                       # Read request sizes (log2)
system.mem_ctrls1.readPktSize::6               650415                       # Read request sizes (log2)
system.mem_ctrls1.writePktSize::0                   0                       # Write request sizes (log2)
system.mem_ctrls1.writePktSize::1                   0                       # Write request sizes (log2)
system.mem_ctrls1.writePktSize::2                   0                       # Write request sizes (log2)
system.mem_ctrls1.writePktSize::3                   0                       # Write request sizes (log2)
system.mem_ctrls1.writePktSize::4                   0                       # Write request sizes (log2)
system.mem_ctrls1.writePktSize::5                   0                       # Write request sizes (log2)
system.mem_ctrls1.writePktSize::6              302641                       # Write request sizes (log2)
system.mem_ctrls1.rdQLenPdf::0                 170712                       # What read queue length does an incoming req see
system.mem_ctrls1.rdQLenPdf::1                  21754                       # What read queue length does an incoming req see
system.mem_ctrls1.rdQLenPdf::2                  22122                       # What read queue length does an incoming req see
system.mem_ctrls1.rdQLenPdf::3                  22825                       # What read queue length does an incoming req see
system.mem_ctrls1.rdQLenPdf::4                  23375                       # What read queue length does an incoming req see
system.mem_ctrls1.rdQLenPdf::5                  23302                       # What read queue length does an incoming req see
system.mem_ctrls1.rdQLenPdf::6                  22960                       # What read queue length does an incoming req see
system.mem_ctrls1.rdQLenPdf::7                  22673                       # What read queue length does an incoming req see
system.mem_ctrls1.rdQLenPdf::8                  21864                       # What read queue length does an incoming req see
system.mem_ctrls1.rdQLenPdf::9                  20801                       # What read queue length does an incoming req see
system.mem_ctrls1.rdQLenPdf::10                 19363                       # What read queue length does an incoming req see
system.mem_ctrls1.rdQLenPdf::11                 18240                       # What read queue length does an incoming req see
system.mem_ctrls1.rdQLenPdf::12                 17145                       # What read queue length does an incoming req see
system.mem_ctrls1.rdQLenPdf::13                 15841                       # What read queue length does an incoming req see
system.mem_ctrls1.rdQLenPdf::14                 14608                       # What read queue length does an incoming req see
system.mem_ctrls1.rdQLenPdf::15                 13460                       # What read queue length does an incoming req see
system.mem_ctrls1.rdQLenPdf::16                 12567                       # What read queue length does an incoming req see
system.mem_ctrls1.rdQLenPdf::17                 11544                       # What read queue length does an incoming req see
system.mem_ctrls1.rdQLenPdf::18                 10645                       # What read queue length does an incoming req see
system.mem_ctrls1.rdQLenPdf::19                  9937                       # What read queue length does an incoming req see
system.mem_ctrls1.rdQLenPdf::20                  9272                       # What read queue length does an incoming req see
system.mem_ctrls1.rdQLenPdf::21                  8423                       # What read queue length does an incoming req see
system.mem_ctrls1.rdQLenPdf::22                  7810                       # What read queue length does an incoming req see
system.mem_ctrls1.rdQLenPdf::23                  7138                       # What read queue length does an incoming req see
system.mem_ctrls1.rdQLenPdf::24                  6601                       # What read queue length does an incoming req see
system.mem_ctrls1.rdQLenPdf::25                  6322                       # What read queue length does an incoming req see
system.mem_ctrls1.rdQLenPdf::26                  6017                       # What read queue length does an incoming req see
system.mem_ctrls1.rdQLenPdf::27                  5645                       # What read queue length does an incoming req see
system.mem_ctrls1.rdQLenPdf::28                  5447                       # What read queue length does an incoming req see
system.mem_ctrls1.rdQLenPdf::29                  5254                       # What read queue length does an incoming req see
system.mem_ctrls1.rdQLenPdf::30                  5152                       # What read queue length does an incoming req see
system.mem_ctrls1.rdQLenPdf::31                 61294                       # What read queue length does an incoming req see
system.mem_ctrls1.wrQLenPdf::0                  43099                       # What write queue length does an incoming req see
system.mem_ctrls1.wrQLenPdf::1                  48329                       # What write queue length does an incoming req see
system.mem_ctrls1.wrQLenPdf::2                  51003                       # What write queue length does an incoming req see
system.mem_ctrls1.wrQLenPdf::3                  52408                       # What write queue length does an incoming req see
system.mem_ctrls1.wrQLenPdf::4                  52531                       # What write queue length does an incoming req see
system.mem_ctrls1.wrQLenPdf::5                  17092                       # What write queue length does an incoming req see
system.mem_ctrls1.wrQLenPdf::6                  16137                       # What write queue length does an incoming req see
system.mem_ctrls1.wrQLenPdf::7                  22042                       # What write queue length does an incoming req see
system.mem_ctrls1.bytesPerActivate::samples       299148                       # Bytes accessed per row activation
system.mem_ctrls1.bytesPerActivate::mean   203.829222                       # Bytes accessed per row activation
system.mem_ctrls1.bytesPerActivate::gmean   155.980932                       # Bytes accessed per row activation
system.mem_ctrls1.bytesPerActivate::stdev   152.658336                       # Bytes accessed per row activation
system.mem_ctrls1.bytesPerActivate::0-127        97362     32.55%     32.55% # Bytes accessed per row activation
system.mem_ctrls1.bytesPerActivate::128-255        89680     29.98%     62.52% # Bytes accessed per row activation
system.mem_ctrls1.bytesPerActivate::256-383        73214     24.47%     87.00% # Bytes accessed per row activation
system.mem_ctrls1.bytesPerActivate::384-511        19181      6.41%     93.41% # Bytes accessed per row activation
system.mem_ctrls1.bytesPerActivate::512-639        14391      4.81%     98.22% # Bytes accessed per row activation
system.mem_ctrls1.bytesPerActivate::640-767         2717      0.91%     99.13% # Bytes accessed per row activation
system.mem_ctrls1.bytesPerActivate::768-895         1352      0.45%     99.58% # Bytes accessed per row activation
system.mem_ctrls1.bytesPerActivate::896-1023          842      0.28%     99.86% # Bytes accessed per row activation
system.mem_ctrls1.bytesPerActivate::1024-1151          409      0.14%    100.00% # Bytes accessed per row activation
system.mem_ctrls1.bytesPerActivate::total       299148                       # Bytes accessed per row activation
system.mem_ctrls1.rdPerTurnAround::samples        45033                       # Reads before turning the bus around for writes
system.mem_ctrls1.rdPerTurnAround::mean     14.436347                       # Reads before turning the bus around for writes
system.mem_ctrls1.rdPerTurnAround::stdev    28.627577                       # Reads before turning the bus around for writes
system.mem_ctrls1.rdPerTurnAround::0-127        44753     99.38%     99.38% # Reads before turning the bus around for writes
system.mem_ctrls1.rdPerTurnAround::128-255          218      0.48%     99.86% # Reads before turning the bus around for writes
system.mem_ctrls1.rdPerTurnAround::256-383           37      0.08%     99.94% # Reads before turning the bus around for writes
system.mem_ctrls1.rdPerTurnAround::384-511           12      0.03%     99.97% # Reads before turning the bus around for writes
system.mem_ctrls1.rdPerTurnAround::512-639            6      0.01%     99.98% # Reads before turning the bus around for writes
system.mem_ctrls1.rdPerTurnAround::640-767            3      0.01%     99.99% # Reads before turning the bus around for writes
system.mem_ctrls1.rdPerTurnAround::768-895            1      0.00%     99.99% # Reads before turning the bus around for writes
system.mem_ctrls1.rdPerTurnAround::896-1023            1      0.00%    100.00% # Reads before turning the bus around for writes
system.mem_ctrls1.rdPerTurnAround::1152-1279            1      0.00%    100.00% # Reads before turning the bus around for writes
system.mem_ctrls1.rdPerTurnAround::2816-2943            1      0.00%    100.00% # Reads before turning the bus around for writes
system.mem_ctrls1.rdPerTurnAround::total        45033                       # Reads before turning the bus around for writes
system.mem_ctrls1.wrPerTurnAround::samples        45033                       # Writes before turning the bus around for reads
system.mem_ctrls1.wrPerTurnAround::mean      6.720427                       # Writes before turning the bus around for reads
system.mem_ctrls1.wrPerTurnAround::gmean     6.198967                       # Writes before turning the bus around for reads
system.mem_ctrls1.wrPerTurnAround::stdev     3.202041                       # Writes before turning the bus around for reads
system.mem_ctrls1.wrPerTurnAround::4-7          34500     76.61%     76.61% # Writes before turning the bus around for reads
system.mem_ctrls1.wrPerTurnAround::8-11          5386     11.96%     88.57% # Writes before turning the bus around for reads
system.mem_ctrls1.wrPerTurnAround::12-15         2772      6.16%     94.73% # Writes before turning the bus around for reads
system.mem_ctrls1.wrPerTurnAround::16-19         2375      5.27%    100.00% # Writes before turning the bus around for reads
system.mem_ctrls1.wrPerTurnAround::total        45033                       # Writes before turning the bus around for reads
system.mem_ctrls1.totQLat                 72079190667                       # Total ticks spent queuing
system.mem_ctrls1.totMemAccLat            84268809417                       # Total ticks spent from burst creation until serviced by the DRAM
system.mem_ctrls1.totBusLat                3250565000                       # Total ticks spent in databus transfers
system.mem_ctrls1.avgQLat                   110871.79                       # Average queueing delay per DRAM burst
system.mem_ctrls1.avgBusLat                   5000.00                       # Average bus latency per DRAM burst
system.mem_ctrls1.avgMemAccLat              129621.79                       # Average memory access latency per DRAM burst
system.mem_ctrls1.avgRdBW                      347.92                       # Average DRAM read bandwidth in MiByte/s
system.mem_ctrls1.avgWrBW                      161.97                       # Average achieved write bandwidth in MiByte/s
system.mem_ctrls1.avgRdBWSys                   348.08                       # Average system read bandwidth in MiByte/s
system.mem_ctrls1.avgWrBWSys                   161.97                       # Average system write bandwidth in MiByte/s
system.mem_ctrls1.peakBW                     12800.00                       # Theoretical peak bandwidth in MiByte/s
system.mem_ctrls1.busUtil                        3.98                       # Data bus utilization in percentage
system.mem_ctrls1.busUtilRead                    2.72                       # Data bus utilization in percentage for reads
system.mem_ctrls1.busUtilWrite                   1.27                       # Data bus utilization in percentage for writes
system.mem_ctrls1.avgRdQLen                      1.74                       # Average read queue length when enqueuing
system.mem_ctrls1.avgWrQLen                      3.03                       # Average write queue length when enqueuing
system.mem_ctrls1.readRowHits                  483634                       # Number of row buffer hits during reads
system.mem_ctrls1.writeRowHits                 169961                       # Number of row buffer hits during writes
system.mem_ctrls1.readRowHitRate                74.39                       # Row buffer hit rate for reads
system.mem_ctrls1.writeRowHitRate               56.16                       # Row buffer hit rate for writes
system.mem_ctrls1.avgGap                    125477.08                       # Average gap between requests
system.mem_ctrls1.pageHitRate                   68.60                       # Row buffer hit rate, read and write combined
system.mem_ctrls1.memoryStateTime::IDLE   20708367750                       # Time in different power states
system.mem_ctrls1.memoryStateTime::REF     3993080000                       # Time in different power states
system.mem_ctrls1.memoryStateTime::PRE_PDN            0                       # Time in different power states
system.mem_ctrls1.memoryStateTime::ACT    94880215750                       # Time in different power states
system.mem_ctrls1.memoryStateTime::ACT_PDN            0                       # Time in different power states
system.mem_ctrls1.actEnergy::0             1139360040                       # Energy for activate commands per rank (pJ)
system.mem_ctrls1.actEnergy::1             1122093000                       # Energy for activate commands per rank (pJ)
system.mem_ctrls1.preEnergy::0              621674625                       # Energy for precharge commands per rank (pJ)
system.mem_ctrls1.preEnergy::1              612253125                       # Energy for precharge commands per rank (pJ)
system.mem_ctrls1.readEnergy::0            2541809400                       # Energy for read commands per rank (pJ)
system.mem_ctrls1.readEnergy::1            2528767800                       # Energy for read commands per rank (pJ)
system.mem_ctrls1.writeEnergy::0            983320560                       # Energy for write commands per rank (pJ)
system.mem_ctrls1.writeEnergy::1            977689440                       # Energy for write commands per rank (pJ)
system.mem_ctrls1.refreshEnergy::0         7810464480                       # Energy for refresh commands per rank (pJ)
system.mem_ctrls1.refreshEnergy::1         7810464480                       # Energy for refresh commands per rank (pJ)
system.mem_ctrls1.actBackEnergy::0        48070083600                       # Energy for active background per rank (pJ)
system.mem_ctrls1.actBackEnergy::1        47846005200                       # Energy for active background per rank (pJ)
system.mem_ctrls1.preBackEnergy::0        29582152500                       # Energy for precharge background per rank (pJ)
system.mem_ctrls1.preBackEnergy::1        29778712500                       # Energy for precharge background per rank (pJ)
system.mem_ctrls1.totalEnergy::0          90748865205                       # Total energy per rank (pJ)
system.mem_ctrls1.totalEnergy::1          90675985545                       # Total energy per rank (pJ)
system.mem_ctrls1.averagePower::0          758.887242                       # Core power per rank (mW)
system.mem_ctrls1.averagePower::1          758.277786                       # Core power per rank (mW)
system.mem_ctrls2.bytes_read::ruby.dir_cntrl2     41639808                       # Number of bytes read from this memory
system.mem_ctrls2.bytes_read::total          41639808                       # Number of bytes read from this memory
system.mem_ctrls2.bytes_written::ruby.dir_cntrl2     19388288                       # Number of bytes written to this memory
system.mem_ctrls2.bytes_written::total       19388288                       # Number of bytes written to this memory
system.mem_ctrls2.num_reads::ruby.dir_cntrl2       650622                       # Number of read requests responded to by this memory
system.mem_ctrls2.num_reads::total             650622                       # Number of read requests responded to by this memory
system.mem_ctrls2.num_writes::ruby.dir_cntrl2       302942                       # Number of write requests responded to by this memory
system.mem_ctrls2.num_writes::total            302942                       # Number of write requests responded to by this memory
system.mem_ctrls2.bw_read::ruby.dir_cntrl2    348195029                       # Total read bandwidth from this memory (bytes/s)
system.mem_ctrls2.bw_read::total            348195029                       # Total read bandwidth from this memory (bytes/s)
system.mem_ctrls2.bw_write::ruby.dir_cntrl2    162126240                       # Write bandwidth from this memory (bytes/s)
system.mem_ctrls2.bw_write::total           162126240                       # Write bandwidth from this memory (bytes/s)
system.mem_ctrls2.bw_total::ruby.dir_cntrl2    510321269                       # Total bandwidth to/from this memory (bytes/s)
system.mem_ctrls2.bw_total::total           510321269                       # Total bandwidth to/from this memory (bytes/s)
system.mem_ctrls2.readReqs                     650622                       # Number of read requests accepted
system.mem_ctrls2.writeReqs                    302942                       # Number of write requests accepted
system.mem_ctrls2.readBursts                   650622                       # Number of DRAM read bursts, including those serviced by the write queue
system.mem_ctrls2.writeBursts                  302942                       # Number of DRAM write bursts, including those merged in the write queue
system.mem_ctrls2.bytesReadDRAM              41624128                       # Total number of bytes read from DRAM
system.mem_ctrls2.bytesReadWrQ                  15680                       # Total number of bytes read from write queue
system.mem_ctrls2.bytesWritten               19388160                       # Total number of bytes written to DRAM
system.mem_ctrls2.bytesReadSys               41639808                       # Total read bytes from the system interface side
system.mem_ctrls2.bytesWrittenSys            19388288                       # Total written bytes from the system interface side
system.mem_ctrls2.servicedByWrQ                   245                       # Number of DRAM read bursts serviced by the write queue
system.mem_ctrls2.mergedWrBursts                    0                       # Number of DRAM write bursts merged with an existing one
system.mem_ctrls2.neitherReadNorWriteReqs            0                       # Number of requests that are neither read nor write
system.mem_ctrls2.perBankRdBursts::0            40520                       # Per bank write bursts
system.mem_ctrls2.perBankRdBursts::1            40438                       # Per bank write bursts
system.mem_ctrls2.perBankRdBursts::2            40331                       # Per bank write bursts
system.mem_ctrls2.perBankRdBursts::3            40526                       # Per bank write bursts
system.mem_ctrls2.perBankRdBursts::4            41106                       # Per bank write bursts
system.mem_ctrls2.perBankRdBursts::5            40569                       # Per bank write bursts
system.mem_ctrls2.perBankRdBursts::6            41474                       # Per bank write bursts
system.mem_ctrls2.perBankRdBursts::7            41024                       # Per bank write bursts
system.mem_ctrls2.perBankRdBursts::8            40234                       # Per bank write bursts
system.mem_ctrls2.perBankRdBursts::9            40226                       # Per bank write bursts
system.mem_ctrls2.perBankRdBursts::10           40265                       # Per bank write bursts
system.mem_ctrls2.perBankRdBursts::11           40648                       # Per bank write bursts
system.mem_ctrls2.perBankRdBursts::12           40819                       # Per bank write bursts
system.mem_ctrls2.perBankRdBursts::13           40442                       # Per bank write bursts
system.mem_ctrls2.perBankRdBursts::14           40876                       # Per bank write bursts
system.mem_ctrls2.perBankRdBursts::15           40879                       # Per bank write bursts
system.mem_ctrls2.perBankWrBursts::0            18831                       # Per bank write bursts
system.mem_ctrls2.perBankWrBursts::1            18873                       # Per bank write bursts
system.mem_ctrls2.perBankWrBursts::2            18872                       # Per bank write bursts
system.mem_ctrls2.perBankWrBursts::3            18870                       # Per bank write bursts
system.mem_ctrls2.perBankWrBursts::4            19133                       # Per bank write bursts
system.mem_ctrls2.perBankWrBursts::5            18952                       # Per bank write bursts
system.mem_ctrls2.perBankWrBursts::6            19090                       # Per bank write bursts
system.mem_ctrls2.perBankWrBursts::7            19221                       # Per bank write bursts
system.mem_ctrls2.perBankWrBursts::8            18748                       # Per bank write bursts
system.mem_ctrls2.perBankWrBursts::9            18930                       # Per bank write bursts
system.mem_ctrls2.perBankWrBursts::10           18745                       # Per bank write bursts
system.mem_ctrls2.perBankWrBursts::11           18822                       # Per bank write bursts
system.mem_ctrls2.perBankWrBursts::12           19008                       # Per bank write bursts
system.mem_ctrls2.perBankWrBursts::13           18858                       # Per bank write bursts
system.mem_ctrls2.perBankWrBursts::14           18994                       # Per bank write bursts
system.mem_ctrls2.perBankWrBursts::15           18993                       # Per bank write bursts
system.mem_ctrls2.numRdRetry                    56343                       # Number of times read queue was full causing retry
system.mem_ctrls2.numWrRetry                    12065                       # Number of times write queue was full causing retry
system.mem_ctrls2.totGap                 119587557500                       # Total gap between requests
system.mem_ctrls2.readPktSize::0                    0                       # Read request sizes (log2)
system.mem_ctrls2.readPktSize::1                    0                       # Read request sizes (log2)
system.mem_ctrls2.readPktSize::2                    0                       # Read request sizes (log2)
system.mem_ctrls2.readPktSize::3                    0                       # Read request sizes (log2)
system.mem_ctrls2.readPktSize::4                    0                       # Read request sizes (log2)
system.mem_ctrls2.readPktSize::5                    0                       # Read request sizes (log2)
system.mem_ctrls2.readPktSize::6               650622                       # Read request sizes (log2)
system.mem_ctrls2.writePktSize::0                   0                       # Write request sizes (log2)
system.mem_ctrls2.writePktSize::1                   0                       # Write request sizes (log2)
system.mem_ctrls2.writePktSize::2                   0                       # Write request sizes (log2)
system.mem_ctrls2.writePktSize::3                   0                       # Write request sizes (log2)
system.mem_ctrls2.writePktSize::4                   0                       # Write request sizes (log2)
system.mem_ctrls2.writePktSize::5                   0                       # Write request sizes (log2)
system.mem_ctrls2.writePktSize::6              302942                       # Write request sizes (log2)
system.mem_ctrls2.rdQLenPdf::0                 170832                       # What read queue length does an incoming req see
system.mem_ctrls2.rdQLenPdf::1                  21757                       # What read queue length does an incoming req see
system.mem_ctrls2.rdQLenPdf::2                  22171                       # What read queue length does an incoming req see
system.mem_ctrls2.rdQLenPdf::3                  22906                       # What read queue length does an incoming req see
system.mem_ctrls2.rdQLenPdf::4                  23286                       # What read queue length does an incoming req see
system.mem_ctrls2.rdQLenPdf::5                  23317                       # What read queue length does an incoming req see
system.mem_ctrls2.rdQLenPdf::6                  22874                       # What read queue length does an incoming req see
system.mem_ctrls2.rdQLenPdf::7                  22366                       # What read queue length does an incoming req see
system.mem_ctrls2.rdQLenPdf::8                  21620                       # What read queue length does an incoming req see
system.mem_ctrls2.rdQLenPdf::9                  20452                       # What read queue length does an incoming req see
system.mem_ctrls2.rdQLenPdf::10                 19614                       # What read queue length does an incoming req see
system.mem_ctrls2.rdQLenPdf::11                 18443                       # What read queue length does an incoming req see
system.mem_ctrls2.rdQLenPdf::12                 17216                       # What read queue length does an incoming req see
system.mem_ctrls2.rdQLenPdf::13                 15993                       # What read queue length does an incoming req see
system.mem_ctrls2.rdQLenPdf::14                 14683                       # What read queue length does an incoming req see
system.mem_ctrls2.rdQLenPdf::15                 13622                       # What read queue length does an incoming req see
system.mem_ctrls2.rdQLenPdf::16                 12414                       # What read queue length does an incoming req see
system.mem_ctrls2.rdQLenPdf::17                 11360                       # What read queue length does an incoming req see
system.mem_ctrls2.rdQLenPdf::18                 10481                       # What read queue length does an incoming req see
system.mem_ctrls2.rdQLenPdf::19                  9624                       # What read queue length does an incoming req see
system.mem_ctrls2.rdQLenPdf::20                  8982                       # What read queue length does an incoming req see
system.mem_ctrls2.rdQLenPdf::21                  8277                       # What read queue length does an incoming req see
system.mem_ctrls2.rdQLenPdf::22                  7784                       # What read queue length does an incoming req see
system.mem_ctrls2.rdQLenPdf::23                  7312                       # What read queue length does an incoming req see
system.mem_ctrls2.rdQLenPdf::24                  6831                       # What read queue length does an incoming req see
system.mem_ctrls2.rdQLenPdf::25                  6443                       # What read queue length does an incoming req see
system.mem_ctrls2.rdQLenPdf::26                  6191                       # What read queue length does an incoming req see
system.mem_ctrls2.rdQLenPdf::27                  5851                       # What read queue length does an incoming req see
system.mem_ctrls2.rdQLenPdf::28                  5515                       # What read queue length does an incoming req see
system.mem_ctrls2.rdQLenPdf::29                  5292                       # What read queue length does an incoming req see
system.mem_ctrls2.rdQLenPdf::30                  5202                       # What read queue length does an incoming req see
system.mem_ctrls2.rdQLenPdf::31                 61666                       # What read queue length does an incoming req see
system.mem_ctrls2.wrQLenPdf::0                  43172                       # What write queue length does an incoming req see
system.mem_ctrls2.wrQLenPdf::1                  48473                       # What write queue length does an incoming req see
system.mem_ctrls2.wrQLenPdf::2                  50921                       # What write queue length does an incoming req see
system.mem_ctrls2.wrQLenPdf::3                  52378                       # What write queue length does an incoming req see
system.mem_ctrls2.wrQLenPdf::4                  52504                       # What write queue length does an incoming req see
system.mem_ctrls2.wrQLenPdf::5                  17255                       # What write queue length does an incoming req see
system.mem_ctrls2.wrQLenPdf::6                  16033                       # What write queue length does an incoming req see
system.mem_ctrls2.wrQLenPdf::7                  22206                       # What write queue length does an incoming req see
system.mem_ctrls2.bytesPerActivate::samples       298661                       # Bytes accessed per row activation
system.mem_ctrls2.bytesPerActivate::mean   204.283947                       # Bytes accessed per row activation
system.mem_ctrls2.bytesPerActivate::gmean   156.452840                       # Bytes accessed per row activation
system.mem_ctrls2.bytesPerActivate::stdev   152.570627                       # Bytes accessed per row activation
system.mem_ctrls2.bytesPerActivate::0-127        96563     32.33%     32.33% # Bytes accessed per row activation
system.mem_ctrls2.bytesPerActivate::128-255        89441     29.95%     62.28% # Bytes accessed per row activation
system.mem_ctrls2.bytesPerActivate::256-383        73657     24.66%     86.94% # Bytes accessed per row activation
system.mem_ctrls2.bytesPerActivate::384-511        19232      6.44%     93.38% # Bytes accessed per row activation
system.mem_ctrls2.bytesPerActivate::512-639        14458      4.84%     98.22% # Bytes accessed per row activation
system.mem_ctrls2.bytesPerActivate::640-767         2758      0.92%     99.15% # Bytes accessed per row activation
system.mem_ctrls2.bytesPerActivate::768-895         1298      0.43%     99.58% # Bytes accessed per row activation
system.mem_ctrls2.bytesPerActivate::896-1023          858      0.29%     99.87% # Bytes accessed per row activation
system.mem_ctrls2.bytesPerActivate::1024-1151          396      0.13%    100.00% # Bytes accessed per row activation
system.mem_ctrls2.bytesPerActivate::total       298661                       # Bytes accessed per row activation
system.mem_ctrls2.rdPerTurnAround::samples        45067                       # Reads before turning the bus around for writes
system.mem_ctrls2.rdPerTurnAround::mean     14.431247                       # Reads before turning the bus around for writes
system.mem_ctrls2.rdPerTurnAround::stdev    28.133482                       # Reads before turning the bus around for writes
system.mem_ctrls2.rdPerTurnAround::0-127        44789     99.38%     99.38% # Reads before turning the bus around for writes
system.mem_ctrls2.rdPerTurnAround::128-255          215      0.48%     99.86% # Reads before turning the bus around for writes
system.mem_ctrls2.rdPerTurnAround::256-383           38      0.08%     99.94% # Reads before turning the bus around for writes
system.mem_ctrls2.rdPerTurnAround::384-511           15      0.03%     99.98% # Reads before turning the bus around for writes
system.mem_ctrls2.rdPerTurnAround::512-639            5      0.01%     99.99% # Reads before turning the bus around for writes
system.mem_ctrls2.rdPerTurnAround::640-767            2      0.00%     99.99% # Reads before turning the bus around for writes
system.mem_ctrls2.rdPerTurnAround::768-895            1      0.00%    100.00% # Reads before turning the bus around for writes
system.mem_ctrls2.rdPerTurnAround::1152-1279            1      0.00%    100.00% # Reads before turning the bus around for writes
system.mem_ctrls2.rdPerTurnAround::2816-2943            1      0.00%    100.00% # Reads before turning the bus around for writes
system.mem_ctrls2.rdPerTurnAround::total        45067                       # Reads before turning the bus around for writes
system.mem_ctrls2.wrPerTurnAround::samples        45067                       # Writes before turning the bus around for reads
system.mem_ctrls2.wrPerTurnAround::mean      6.721992                       # Writes before turning the bus around for reads
system.mem_ctrls2.wrPerTurnAround::gmean     6.200892                       # Writes before turning the bus around for reads
system.mem_ctrls2.wrPerTurnAround::stdev     3.200340                       # Writes before turning the bus around for reads
system.mem_ctrls2.wrPerTurnAround::4-7          34539     76.64%     76.64% # Writes before turning the bus around for reads
system.mem_ctrls2.wrPerTurnAround::8-11          5392     11.96%     88.60% # Writes before turning the bus around for reads
system.mem_ctrls2.wrPerTurnAround::12-15         2777      6.16%     94.77% # Writes before turning the bus around for reads
system.mem_ctrls2.wrPerTurnAround::16-19         2359      5.23%    100.00% # Writes before turning the bus around for reads
system.mem_ctrls2.wrPerTurnAround::total        45067                       # Writes before turning the bus around for reads
system.mem_ctrls2.totQLat                 72305799267                       # Total ticks spent queuing
system.mem_ctrls2.totMemAccLat            84500368017                       # Total ticks spent from burst creation until serviced by the DRAM
system.mem_ctrls2.totBusLat                3251885000                       # Total ticks spent in databus transfers
system.mem_ctrls2.avgQLat                   111175.21                       # Average queueing delay per DRAM burst
system.mem_ctrls2.avgBusLat                   5000.00                       # Average bus latency per DRAM burst
system.mem_ctrls2.avgMemAccLat              129925.21                       # Average memory access latency per DRAM burst
system.mem_ctrls2.avgRdBW                      348.06                       # Average DRAM read bandwidth in MiByte/s
system.mem_ctrls2.avgWrBW                      162.13                       # Average achieved write bandwidth in MiByte/s
system.mem_ctrls2.avgRdBWSys                   348.20                       # Average system read bandwidth in MiByte/s
system.mem_ctrls2.avgWrBWSys                   162.13                       # Average system write bandwidth in MiByte/s
system.mem_ctrls2.peakBW                     12800.00                       # Theoretical peak bandwidth in MiByte/s
system.mem_ctrls2.busUtil                        3.99                       # Data bus utilization in percentage
system.mem_ctrls2.busUtilRead                    2.72                       # Data bus utilization in percentage for reads
system.mem_ctrls2.busUtilWrite                   1.27                       # Data bus utilization in percentage for writes
system.mem_ctrls2.avgRdQLen                      1.74                       # Average read queue length when enqueuing
system.mem_ctrls2.avgWrQLen                      3.03                       # Average write queue length when enqueuing
system.mem_ctrls2.readRowHits                  484072                       # Number of row buffer hits during reads
system.mem_ctrls2.writeRowHits                 170577                       # Number of row buffer hits during writes
system.mem_ctrls2.readRowHitRate                74.43                       # Row buffer hit rate for reads
system.mem_ctrls2.writeRowHitRate               56.31                       # Row buffer hit rate for writes
system.mem_ctrls2.avgGap                    125411.15                       # Average gap between requests
system.mem_ctrls2.pageHitRate                   68.67                       # Row buffer hit rate, read and write combined
system.mem_ctrls2.memoryStateTime::IDLE   20835830750                       # Time in different power states
system.mem_ctrls2.memoryStateTime::REF     3993080000                       # Time in different power states
system.mem_ctrls2.memoryStateTime::PRE_PDN            0                       # Time in different power states
system.mem_ctrls2.memoryStateTime::ACT    94754253750                       # Time in different power states
system.mem_ctrls2.memoryStateTime::ACT_PDN            0                       # Time in different power states
system.mem_ctrls2.actEnergy::0             1136698920                       # Energy for activate commands per rank (pJ)
system.mem_ctrls2.actEnergy::1             1121102640                       # Energy for activate commands per rank (pJ)
system.mem_ctrls2.preEnergy::0              620222625                       # Energy for precharge commands per rank (pJ)
system.mem_ctrls2.preEnergy::1              611712750                       # Energy for precharge commands per rank (pJ)
system.mem_ctrls2.readEnergy::0            2542667400                       # Energy for read commands per rank (pJ)
system.mem_ctrls2.readEnergy::1            2530140600                       # Energy for read commands per rank (pJ)
system.mem_ctrls2.writeEnergy::0            983897280                       # Energy for write commands per rank (pJ)
system.mem_ctrls2.writeEnergy::1            979089120                       # Energy for write commands per rank (pJ)
system.mem_ctrls2.refreshEnergy::0         7810464480                       # Energy for refresh commands per rank (pJ)
system.mem_ctrls2.refreshEnergy::1         7810464480                       # Energy for refresh commands per rank (pJ)
system.mem_ctrls2.actBackEnergy::0        48312138375                       # Energy for active background per rank (pJ)
system.mem_ctrls2.actBackEnergy::1        47804092245                       # Energy for active background per rank (pJ)
system.mem_ctrls2.preBackEnergy::0        29369823750                       # Energy for precharge background per rank (pJ)
system.mem_ctrls2.preBackEnergy::1        29815478250                       # Energy for precharge background per rank (pJ)
system.mem_ctrls2.totalEnergy::0          90775912830                       # Total energy per rank (pJ)
system.mem_ctrls2.totalEnergy::1          90672080085                       # Total energy per rank (pJ)
system.mem_ctrls2.averagePower::0          759.113427                       # Core power per rank (mW)
system.mem_ctrls2.averagePower::1          758.245126                       # Core power per rank (mW)
system.mem_ctrls3.bytes_read::ruby.dir_cntrl3     41615168                       # Number of bytes read from this memory
system.mem_ctrls3.bytes_read::total          41615168                       # Number of bytes read from this memory
system.mem_ctrls3.bytes_written::ruby.dir_cntrl3     19356928                       # Number of bytes written to this memory
system.mem_ctrls3.bytes_written::total       19356928                       # Number of bytes written to this memory
system.mem_ctrls3.num_reads::ruby.dir_cntrl3       650237                       # Number of read requests responded to by this memory
system.mem_ctrls3.num_reads::total             650237                       # Number of read requests responded to by this memory
system.mem_ctrls3.num_writes::ruby.dir_cntrl3       302452                       # Number of write requests responded to by this memory
system.mem_ctrls3.num_writes::total            302452                       # Number of write requests responded to by this memory
system.mem_ctrls3.bw_read::ruby.dir_cntrl3    347988987                       # Total read bandwidth from this memory (bytes/s)
system.mem_ctrls3.bw_read::total            347988987                       # Total read bandwidth from this memory (bytes/s)
system.mem_ctrls3.bw_write::ruby.dir_cntrl3    161864005                       # Write bandwidth from this memory (bytes/s)
system.mem_ctrls3.bw_write::total           161864005                       # Write bandwidth from this memory (bytes/s)
system.mem_ctrls3.bw_total::ruby.dir_cntrl3    509852993                       # Total bandwidth to/from this memory (bytes/s)
system.mem_ctrls3.bw_total::total           509852993                       # Total bandwidth to/from this memory (bytes/s)
system.mem_ctrls3.readReqs                     650238                       # Number of read requests accepted
system.mem_ctrls3.writeReqs                    302452                       # Number of write requests accepted
system.mem_ctrls3.readBursts                   650238                       # Number of DRAM read bursts, including those serviced by the write queue
system.mem_ctrls3.writeBursts                  302452                       # Number of DRAM write bursts, including those merged in the write queue
system.mem_ctrls3.bytesReadDRAM              41598848                       # Total number of bytes read from DRAM
system.mem_ctrls3.bytesReadWrQ                  16384                       # Total number of bytes read from write queue
system.mem_ctrls3.bytesWritten               19356736                       # Total number of bytes written to DRAM
system.mem_ctrls3.bytesReadSys               41615232                       # Total read bytes from the system interface side
system.mem_ctrls3.bytesWrittenSys            19356928                       # Total written bytes from the system interface side
system.mem_ctrls3.servicedByWrQ                   256                       # Number of DRAM read bursts serviced by the write queue
system.mem_ctrls3.mergedWrBursts                    0                       # Number of DRAM write bursts merged with an existing one
system.mem_ctrls3.neitherReadNorWriteReqs            0                       # Number of requests that are neither read nor write
system.mem_ctrls3.perBankRdBursts::0            40455                       # Per bank write bursts
system.mem_ctrls3.perBankRdBursts::1            40471                       # Per bank write bursts
system.mem_ctrls3.perBankRdBursts::2            40015                       # Per bank write bursts
system.mem_ctrls3.perBankRdBursts::3            40625                       # Per bank write bursts
system.mem_ctrls3.perBankRdBursts::4            40644                       # Per bank write bursts
system.mem_ctrls3.perBankRdBursts::5            40863                       # Per bank write bursts
system.mem_ctrls3.perBankRdBursts::6            41496                       # Per bank write bursts
system.mem_ctrls3.perBankRdBursts::7            41101                       # Per bank write bursts
system.mem_ctrls3.perBankRdBursts::8            40125                       # Per bank write bursts
system.mem_ctrls3.perBankRdBursts::9            40281                       # Per bank write bursts
system.mem_ctrls3.perBankRdBursts::10           40106                       # Per bank write bursts
system.mem_ctrls3.perBankRdBursts::11           40703                       # Per bank write bursts
system.mem_ctrls3.perBankRdBursts::12           40531                       # Per bank write bursts
system.mem_ctrls3.perBankRdBursts::13           40633                       # Per bank write bursts
system.mem_ctrls3.perBankRdBursts::14           40931                       # Per bank write bursts
system.mem_ctrls3.perBankRdBursts::15           41002                       # Per bank write bursts
system.mem_ctrls3.perBankWrBursts::0            18805                       # Per bank write bursts
system.mem_ctrls3.perBankWrBursts::1            18803                       # Per bank write bursts
system.mem_ctrls3.perBankWrBursts::2            18809                       # Per bank write bursts
system.mem_ctrls3.perBankWrBursts::3            18889                       # Per bank write bursts
system.mem_ctrls3.perBankWrBursts::4            18982                       # Per bank write bursts
system.mem_ctrls3.perBankWrBursts::5            18986                       # Per bank write bursts
system.mem_ctrls3.perBankWrBursts::6            19120                       # Per bank write bursts
system.mem_ctrls3.perBankWrBursts::7            19187                       # Per bank write bursts
system.mem_ctrls3.perBankWrBursts::8            18715                       # Per bank write bursts
system.mem_ctrls3.perBankWrBursts::9            18912                       # Per bank write bursts
system.mem_ctrls3.perBankWrBursts::10           18693                       # Per bank write bursts
system.mem_ctrls3.perBankWrBursts::11           18817                       # Per bank write bursts
system.mem_ctrls3.perBankWrBursts::12           18902                       # Per bank write bursts
system.mem_ctrls3.perBankWrBursts::13           18878                       # Per bank write bursts
system.mem_ctrls3.perBankWrBursts::14           19013                       # Per bank write bursts
system.mem_ctrls3.perBankWrBursts::15           18938                       # Per bank write bursts
system.mem_ctrls3.numRdRetry                    58385                       # Number of times read queue was full causing retry
system.mem_ctrls3.numWrRetry                    12135                       # Number of times write queue was full causing retry
system.mem_ctrls3.totGap                 119586853500                       # Total gap between requests
system.mem_ctrls3.readPktSize::0                    0                       # Read request sizes (log2)
system.mem_ctrls3.readPktSize::1                    0                       # Read request sizes (log2)
system.mem_ctrls3.readPktSize::2                    0                       # Read request sizes (log2)
system.mem_ctrls3.readPktSize::3                    0                       # Read request sizes (log2)
system.mem_ctrls3.readPktSize::4                    0                       # Read request sizes (log2)
system.mem_ctrls3.readPktSize::5                    0                       # Read request sizes (log2)
system.mem_ctrls3.readPktSize::6               650238                       # Read request sizes (log2)
system.mem_ctrls3.writePktSize::0                   0                       # Write request sizes (log2)
system.mem_ctrls3.writePktSize::1                   0                       # Write request sizes (log2)
system.mem_ctrls3.writePktSize::2                   0                       # Write request sizes (log2)
system.mem_ctrls3.writePktSize::3                   0                       # Write request sizes (log2)
system.mem_ctrls3.writePktSize::4                   0                       # Write request sizes (log2)
system.mem_ctrls3.writePktSize::5                   0                       # Write request sizes (log2)
system.mem_ctrls3.writePktSize::6              302452                       # Write request sizes (log2)
system.mem_ctrls3.rdQLenPdf::0                 170405                       # What read queue length does an incoming req see
system.mem_ctrls3.rdQLenPdf::1                  21863                       # What read queue length does an incoming req see
system.mem_ctrls3.rdQLenPdf::2                  22388                       # What read queue length does an incoming req see
system.mem_ctrls3.rdQLenPdf::3                  23307                       # What read queue length does an incoming req see
system.mem_ctrls3.rdQLenPdf::4                  23390                       # What read queue length does an incoming req see
system.mem_ctrls3.rdQLenPdf::5                  23510                       # What read queue length does an incoming req see
system.mem_ctrls3.rdQLenPdf::6                  23149                       # What read queue length does an incoming req see
system.mem_ctrls3.rdQLenPdf::7                  22555                       # What read queue length does an incoming req see
system.mem_ctrls3.rdQLenPdf::8                  21511                       # What read queue length does an incoming req see
system.mem_ctrls3.rdQLenPdf::9                  20502                       # What read queue length does an incoming req see
[...]
system.ruby.L2Cache_Controller.MT_MB.Exclusive_Unblock::total      4184070                      
system.ruby.L2Cache_Controller.MT_IIB.L1_GETS |           2     12.50%     12.50% |           0      0.00%     12.50% |           0      0.00%     12.50% |           0      0.00%     12.50% |           2     12.50%     25.00% |           0      0.00%     25.00% |           2     12.50%     37.50% |           0      0.00%     37.50% |           0      0.00%     37.50% |           0      0.00%     37.50% |           5     31.25%     68.75% |           0      0.00%     68.75% |           0      0.00%     68.75% |           0      0.00%     68.75% |           5     31.25%    100.00% |           0      0.00%    100.00% |           0      0.00%    100.00% |           0      0.00%    100.00% |           0      0.00%    100.00% |           0      0.00%    100.00% |           0      0.00%    100.00% |           0      0.00%    100.00% |           0      0.00%    100.00% |           0      0.00%    100.00% |           0      0.00%    100.00% |           0      0.00%    100.00% |           0      0.00%    100.00% |           0      0.00%    100.00% |           0      0.00%    100.00% |           0      0.00%    100.00% |           0      0.00%    100.00% |           0      0.00%    100.00%
system.ruby.L2Cache_Controller.MT_IIB.L1_GETS::total           16                      
system.ruby.L2Cache_Controller.MT_IIB.L1_PUTX |          18      1.72%      1.72% |          22      2.10%      3.82% |          28      2.67%      6.49% |          20      1.91%      8.40% |          22      2.10%     10.50% |          24      2.29%     12.79% |          16      1.53%     14.31% |          25      2.39%     16.70% |          23      2.19%     18.89% |          30      2.86%     21.76% |          34      3.24%     25.00% |          42      4.01%     29.01% |          31      2.96%     31.97% |          52      4.96%     36.93% |          41      3.91%     40.84% |          39      3.72%     44.56% |          32      3.05%     47.61% |          34      3.24%     50.86% |          36      3.44%     54.29% |          46      4.39%     58.68% |          34      3.24%     61.93% |          35      3.34%     65.27% |          52      4.96%     70.23% |          40      3.82%     74.05% |          34      3.24%     77.29% |          39      3.72%     81.01% |          45      4.29%     85.31% |          42      4.01%     89.31% |          23      2.19%     91.51% |          29      2.77%     94.27% |          32      3.05%     97.33% |          28      2.67%    100.00%
system.ruby.L2Cache_Controller.MT_IIB.L1_PUTX::total         1048                      
system.ruby.L2Cache_Controller.MT_IIB.WB_Data |           0      0.00%      0.00% |           0      0.00%      0.00% |           0      0.00%      0.00% |           0      0.00%      0.00% |           0      0.00%      0.00% |           0      0.00%      0.00% |           0      0.00%      0.00% |           0      0.00%      0.00% |           0      0.00%      0.00% |           0      0.00%      0.00% |           0      0.00%      0.00% |           0      0.00%      0.00% |           0      0.00%      0.00% |           0      0.00%      0.00% |           0      0.00%      0.00% |           0      0.00%      0.00% |           0      0.00%      0.00% |           0      0.00%      0.00% |           0      0.00%      0.00% |           0      0.00%      0.00% |           0      0.00%      0.00% |           2     40.00%     40.00% |           0      0.00%     40.00% |           0      0.00%     40.00% |           0      0.00%     40.00% |           0      0.00%     40.00% |           1     20.00%     60.00% |           0      0.00%     60.00% |           0      0.00%     60.00% |           0      0.00%     60.00% |           0      0.00%     60.00% |           2     40.00%    100.00%
system.ruby.L2Cache_Controller.MT_IIB.WB_Data::total            5                      
system.ruby.L2Cache_Controller.MT_IIB.WB_Data_clean |        1373      3.13%      3.13% |        1326      3.02%      6.16% |        1278      2.92%      9.07% |        1272      2.90%     11.97% |        1338      3.05%     15.03% |        1386      3.16%     18.19% |        1337      3.05%     21.24% |        1298      2.96%     24.20% |        1218      2.78%     26.98% |        1203      2.74%     29.72% |        1289      2.94%     32.66% |        1336      3.05%     35.71% |        1407      3.21%     38.92% |        1511      3.45%     42.37% |        1420      3.24%     45.61% |        1392      3.18%     48.78% |        1352      3.08%     51.86% |        1380      3.15%     55.01% |        1487      3.39%     58.41% |        1473      3.36%     61.77% |        1479      3.37%     65.14% |        1490      3.40%     68.54% |        1469      3.35%     71.89% |        1331      3.04%     74.93% |        1340      3.06%     77.98% |        1332      3.04%     81.02% |        1406      3.21%     84.23% |        1395      3.18%     87.41% |        1426      3.25%     90.66% |        1391      3.17%     93.84% |        1419      3.24%     97.07% |        1283      2.93%    100.00%
system.ruby.L2Cache_Controller.MT_IIB.WB_Data_clean::total        43837                      
system.ruby.L2Cache_Controller.MT_IIB.Unblock |          53      1.53%      1.53% |          56      1.62%      3.14% |         110      3.17%      6.32% |         121      3.49%      9.81% |         108      3.12%     12.92% |         105      3.03%     15.95% |         108      3.12%     19.07% |          75      2.16%     21.23% |         167      4.82%     26.05% |         175      5.05%     31.09% |         165      4.76%     35.85% |         106      3.06%     38.91% |          84      2.42%     41.33% |          68      1.96%     43.29% |         144      4.15%     47.45% |          94      2.71%     50.16% |          92      2.65%     52.81% |          95      2.74%     55.55% |          81      2.34%     57.89% |          67      1.93%     59.82% |         140      4.04%     63.86% |         117      3.37%     67.23% |         146      4.21%     71.45% |         120      3.46%     74.91% |         129      3.72%     78.63% |          95      2.74%     81.37% |          83      2.39%     83.76% |          90      2.60%     86.36% |         140      4.04%     90.40% |         141      4.07%     94.46% |          97      2.80%     97.26% |          95      2.74%    100.00%
system.ruby.L2Cache_Controller.MT_IIB.Unblock::total         3467                      
system.ruby.L2Cache_Controller.MT_IB.L1_GETS |           0      0.00%      0.00% |           0      0.00%      0.00% |           0      0.00%      0.00% |           0      0.00%      0.00% |           0      0.00%      0.00% |           0      0.00%      0.00% |           0      0.00%      0.00% |           0      0.00%      0.00% |           0      0.00%      0.00% |           0      0.00%      0.00% |           0      0.00%      0.00% |           0      0.00%      0.00% |           1    100.00%    100.00% |           0      0.00%    100.00% |           0      0.00%    100.00% |           0      0.00%    100.00% |           0      0.00%    100.00% |           0      0.00%    100.00% |           0      0.00%    100.00% |           0      0.00%    100.00% |           0      0.00%    100.00% |           0      0.00%    100.00% |           0      0.00%    100.00% |           0      0.00%    100.00% |           0      0.00%    100.00% |           0      0.00%    100.00% |           0      0.00%    100.00% |           0      0.00%    100.00% |           0      0.00%    100.00% |           0      0.00%    100.00% |           0      0.00%    100.00% |           0      0.00%    100.00%
system.ruby.L2Cache_Controller.MT_IB.L1_GETS::total            1                      
system.ruby.L2Cache_Controller.MT_IB.L1_PUTX |           0      0.00%      0.00% |           0      0.00%      0.00% |           0      0.00%      0.00% |           0      0.00%      0.00% |           0      0.00%      0.00% |           0      0.00%      0.00% |           0      0.00%      0.00% |           0      0.00%      0.00% |           0      0.00%      0.00% |           0      0.00%      0.00% |           0      0.00%      0.00% |           0      0.00%      0.00% |           0      0.00%      0.00% |           0      0.00%      0.00% |           0      0.00%      0.00% |           0      0.00%      0.00% |           0      0.00%      0.00% |           1     25.00%     25.00% |           3     75.00%    100.00% |           0      0.00%    100.00% |           0      0.00%    100.00% |           0      0.00%    100.00% |           0      0.00%    100.00% |           0      0.00%    100.00% |           0      0.00%    100.00% |           0      0.00%    100.00% |           0      0.00%    100.00% |           0      0.00%    100.00% |           0      0.00%    100.00% |           0      0.00%    100.00% |           0      0.00%    100.00% |           0      0.00%    100.00%
system.ruby.L2Cache_Controller.MT_IB.L1_PUTX::total            4                      
system.ruby.L2Cache_Controller.MT_IB.WB_Data_clean |          53      1.53%      1.53% |          56      1.62%      3.14% |         110      3.17%      6.32% |         121      3.49%      9.81% |         108      3.12%     12.92% |         105      3.03%     15.95% |         108      3.12%     19.07% |          75      2.16%     21.23% |         167      4.82%     26.05% |         175      5.05%     31.09% |         165      4.76%     35.85% |         106      3.06%     38.91% |          84      2.42%     41.33% |          68      1.96%     43.29% |         144      4.15%     47.45% |          94      2.71%     50.16% |          92      2.65%     52.81% |          95      2.74%     55.55% |          81      2.34%     57.89% |          67      1.93%     59.82% |         140      4.04%     63.86% |         117      3.37%     67.23% |         146      4.21%     71.45% |         120      3.46%     74.91% |         129      3.72%     78.63% |          95      2.74%     81.37% |          83      2.39%     83.76% |          90      2.60%     86.36% |         140      4.04%     90.40% |         141      4.07%     94.46% |          97      2.80%     97.26% |          95      2.74%    100.00%
system.ruby.L2Cache_Controller.MT_IB.WB_Data_clean::total         3467                      
system.ruby.L2Cache_Controller.MT_SB.L1_GETS |           0      0.00%      0.00% |           0      0.00%      0.00% |           0      0.00%      0.00% |           0      0.00%      0.00% |           1     25.00%     25.00% |           0      0.00%     25.00% |           0      0.00%     25.00% |           0      0.00%     25.00% |           0      0.00%     25.00% |           0      0.00%     25.00% |           1     25.00%     50.00% |           0      0.00%     50.00% |           1     25.00%     75.00% |           0      0.00%     75.00% |           0      0.00%     75.00% |           0      0.00%     75.00% |           0      0.00%     75.00% |           0      0.00%     75.00% |           1     25.00%    100.00% |           0      0.00%    100.00% |           0      0.00%    100.00% |           0      0.00%    100.00% |           0      0.00%    100.00% |           0      0.00%    100.00% |           0      0.00%    100.00% |           0      0.00%    100.00% |           0      0.00%    100.00% |           0      0.00%    100.00% |           0      0.00%    100.00% |           0      0.00%    100.00% |           0      0.00%    100.00% |           0      0.00%    100.00%
system.ruby.L2Cache_Controller.MT_SB.L1_GETS::total            4                      
system.ruby.L2Cache_Controller.MT_SB.L1_PUTX |           0      0.00%      0.00% |           0      0.00%      0.00% |           2      3.12%      3.12% |           1      1.56%      4.69% |           2      3.12%      7.81% |           4      6.25%     14.06% |           3      4.69%     18.75% |           0      0.00%     18.75% |           0      0.00%     18.75% |           2      3.12%     21.88% |           1      1.56%     23.44% |           4      6.25%     29.69% |           3      4.69%     34.38% |           4      6.25%     40.62% |           2      3.12%     43.75% |           3      4.69%     48.44% |           0      0.00%     48.44% |           2      3.12%     51.56% |           4      6.25%     57.81% |           2      3.12%     60.94% |           2      3.12%     64.06% |           3      4.69%     68.75% |           1      1.56%     70.31% |           2      3.12%     73.44% |           3      4.69%     78.12% |           2      3.12%     81.25% |           3      4.69%     85.94% |           2      3.12%     89.06% |           0      0.00%     89.06% |           1      1.56%     90.62% |           3      4.69%     95.31% |           3      4.69%    100.00%
system.ruby.L2Cache_Controller.MT_SB.L1_PUTX::total           64                      
system.ruby.L2Cache_Controller.MT_SB.Unblock |        1373      3.13%      3.13% |        1326      3.02%      6.16% |        1278      2.92%      9.07% |        1272      2.90%     11.97% |        1338      3.05%     15.02% |        1386      3.16%     18.19% |        1337      3.05%     21.24% |        1298      2.96%     24.20% |        1218      2.78%     26.97% |        1203      2.74%     29.72% |        1289      2.94%     32.66% |        1336      3.05%     35.71% |        1407      3.21%     38.91% |        1511      3.45%     42.36% |        1420      3.24%     45.60% |        1392      3.18%     48.78% |        1352      3.08%     51.86% |        1380      3.15%     55.01% |        1487      3.39%     58.40% |        1473      3.36%     61.76% |        1479      3.37%     65.13% |        1492      3.40%     68.53% |        1469      3.35%     71.89% |        1331      3.04%     74.92% |        1340      3.06%     77.98% |        1332      3.04%     81.02% |        1407      3.21%     84.23% |        1395      3.18%     87.41% |        1426      3.25%     90.66% |        1391      3.17%     93.83% |        1419      3.24%     97.07% |        1285      2.93%    100.00%
system.ruby.L2Cache_Controller.MT_SB.Unblock::total        43842                      
system.ruby.SimicsNetworkPortInterface_Controller.MessageSend |      460033     19.50%     19.50% |     1179660     50.00%     69.50% |       91228      3.87%     73.37% |       95179      4.03%     77.40% |       89191      3.78%     81.18% |       92745      3.93%     85.11% |       89524      3.79%     88.91% |       96473      4.09%     92.99% |       82056      3.48%     96.47% |       83231      3.53%    100.00% |           0      0.00%    100.00% |           0      0.00%    100.00% |           0      0.00%    100.00% |           0      0.00%    100.00% |           0      0.00%    100.00% |           0      0.00%    100.00% |           0      0.00%    100.00% |           0      0.00%    100.00% |           0      0.00%    100.00% |           0      0.00%    100.00% |           0      0.00%    100.00% |           0      0.00%    100.00% |           0      0.00%    100.00% |           0      0.00%    100.00% |           0      0.00%    100.00% |           0      0.00%    100.00% |           0      0.00%    100.00% |           0      0.00%    100.00% |           0      0.00%    100.00% |           0      0.00%    100.00% |           0      0.00%    100.00% |           0      0.00%    100.00%
system.ruby.SimicsNetworkPortInterface_Controller.MessageSend::total      2359320                      
system.ruby.SimicsNetworkPortInterface_Controller.MessageRecv |      460033     19.50%     19.50% |     1179660     50.00%     69.50% |       91228      3.87%     73.37% |       95179      4.03%     77.40% |       89191      3.78%     81.18% |       92745      3.93%     85.11% |       89524      3.79%     88.91% |       96473      4.09%     92.99% |       82056      3.48%     96.47% |       83231      3.53%    100.00% |           0      0.00%    100.00% |           0      0.00%    100.00% |           0      0.00%    100.00% |           0      0.00%    100.00% |           0      0.00%    100.00% |           0      0.00%    100.00% |           0      0.00%    100.00% |           0      0.00%    100.00% |           0      0.00%    100.00% |           0      0.00%    100.00% |           0      0.00%    100.00% |           0      0.00%    100.00% |           0      0.00%    100.00% |           0      0.00%    100.00% |           0      0.00%    100.00% |           0      0.00%    100.00% |           0      0.00%    100.00% |           0      0.00%    100.00% |           0      0.00%    100.00% |           0      0.00%    100.00% |           0      0.00%    100.00% |           0      0.00%    100.00%
system.ruby.SimicsNetworkPortInterface_Controller.MessageRecv::total      2359320                      
system.ruby.SimicsNetworkPortInterface_Controller.A.MessageSend |      460033     19.50%     19.50% |     1179660     50.00%     69.50% |       91228      3.87%     73.37% |       95179      4.03%     77.40% |       89191      3.78%     81.18% |       92745      3.93%     85.11% |       89524      3.79%     88.91% |       96473      4.09%     92.99% |       82056      3.48%     96.47% |       83231      3.53%    100.00% |           0      0.00%    100.00% |           0      0.00%    100.00% |           0      0.00%    100.00% |           0      0.00%    100.00% |           0      0.00%    100.00% |           0      0.00%    100.00% |           0      0.00%    100.00% |           0      0.00%    100.00% |           0      0.00%    100.00% |           0      0.00%    100.00% |           0      0.00%    100.00% |           0      0.00%    100.00% |           0      0.00%    100.00% |           0      0.00%    100.00% |           0      0.00%    100.00% |           0      0.00%    100.00% |           0      0.00%    100.00% |           0      0.00%    100.00% |           0      0.00%    100.00% |           0      0.00%    100.00% |           0      0.00%    100.00% |           0      0.00%    100.00%
system.ruby.SimicsNetworkPortInterface_Controller.A.MessageSend::total      2359320                      
system.ruby.SimicsNetworkPortInterface_Controller.A.MessageRecv |      460033     19.50%     19.50% |     1179660     50.00%     69.50% |       91228      3.87%     73.37% |       95179      4.03%     77.40% |       89191      3.78%     81.18% |       92745      3.93%     85.11% |       89524      3.79%     88.91% |       96473      4.09%     92.99% |       82056      3.48%     96.47% |       83231      3.53%    100.00% |           0      0.00%    100.00% |           0      0.00%    100.00% |           0      0.00%    100.00% |           0      0.00%    100.00% |           0      0.00%    100.00% |           0      0.00%    100.00% |           0      0.00%    100.00% |           0      0.00%    100.00% |           0      0.00%    100.00% |           0      0.00%    100.00% |           0      0.00%    100.00% |           0      0.00%    100.00% |           0      0.00%    100.00% |           0      0.00%    100.00% |           0      0.00%    100.00% |           0      0.00%    100.00% |           0      0.00%    100.00% |           0      0.00%    100.00% |           0      0.00%    100.00% |           0      0.00%    100.00% |           0      0.00%    100.00% |           0      0.00%    100.00%
system.ruby.SimicsNetworkPortInterface_Controller.A.MessageRecv::total      2359320                      
system.switch_cpus.kern.inst.arm                    0                       # number of arm instructions executed
system.switch_cpus.kern.inst.quiesce                0                       # number of quiesce instructions executed

---------- End Simulation Statistics   ----------
