
---------- Begin Simulation Statistics ----------
sim_seconds                                  0.059818                       # Number of seconds simulated
sim_ticks                                 59818118000                       # Number of ticks simulated
final_tick                               5235986196500                       # Number of ticks from beginning of simulation (restored from checkpoints and never reset)
sim_freq                                 1000000000000                       # Frequency of simulated ticks
host_inst_rate                                  45663                       # Simulator instruction rate (inst/s)
host_op_rate                                    81217                       # Simulator op (including micro ops) rate (op/s)
host_tick_rate                               68593660                       # Simulator tick rate (ticks/s)
host_mem_usage                                4817636                       # Number of bytes of host memory used
host_seconds                                   872.06                       # Real time elapsed on the host
sim_insts                                    39821251                       # Number of instructions simulated
sim_ops                                      70826677                       # Number of ops (including micro ops) simulated
system.voltage_domain.voltage                       1                       # Voltage in Volts
system.clk_domain.clock                           500                       # Clock period in ticks
system.mem_ctrls0.bytes_read::ruby.dir_cntrl0     14034496                       # Number of bytes read from this memory
system.mem_ctrls0.bytes_read::total          14034496                       # Number of bytes read from this memory
system.mem_ctrls0.bytes_written::ruby.dir_cntrl0      4007680                       # Number of bytes written to this memory
system.mem_ctrls0.bytes_written::total        4007680                       # Number of bytes written to this memory
system.mem_ctrls0.num_reads::ruby.dir_cntrl0       219289                       # Number of read requests responded to by this memory
system.mem_ctrls0.num_reads::total             219289                       # Number of read requests responded to by this memory
system.mem_ctrls0.num_writes::ruby.dir_cntrl0        62620                       # Number of write requests responded to by this memory
system.mem_ctrls0.num_writes::total             62620                       # Number of write requests responded to by this memory
system.mem_ctrls0.bw_read::ruby.dir_cntrl0    234619484                       # Total read bandwidth from this memory (bytes/s)
system.mem_ctrls0.bw_read::total            234619484                       # Total read bandwidth from this memory (bytes/s)
system.mem_ctrls0.bw_write::ruby.dir_cntrl0     66997761                       # Write bandwidth from this memory (bytes/s)
system.mem_ctrls0.bw_write::total            66997761                       # Write bandwidth from this memory (bytes/s)
system.mem_ctrls0.bw_total::ruby.dir_cntrl0    301617246                       # Total bandwidth to/from this memory (bytes/s)
system.mem_ctrls0.bw_total::total           301617246                       # Total bandwidth to/from this memory (bytes/s)
system.mem_ctrls0.readReqs                     219289                       # Number of read requests accepted
system.mem_ctrls0.writeReqs                     62620                       # Number of write requests accepted
system.mem_ctrls0.readBursts                   219289                       # Number of DRAM read bursts, including those serviced by the write queue
system.mem_ctrls0.writeBursts                   62620                       # Number of DRAM write bursts, including those merged in the write queue
system.mem_ctrls0.bytesReadDRAM              14032768                       # Total number of bytes read from DRAM
system.mem_ctrls0.bytesReadWrQ                   1728                       # Total number of bytes read from write queue
system.mem_ctrls0.bytesWritten                4007552                       # Total number of bytes written to DRAM
system.mem_ctrls0.bytesReadSys               14034496                       # Total read bytes from the system interface side
system.mem_ctrls0.bytesWrittenSys             4007680                       # Total written bytes from the system interface side
system.mem_ctrls0.servicedByWrQ                    27                       # Number of DRAM read bursts serviced by the write queue
system.mem_ctrls0.mergedWrBursts                    0                       # Number of DRAM write bursts merged with an existing one
system.mem_ctrls0.neitherReadNorWriteReqs            0                       # Number of requests that are neither read nor write
system.mem_ctrls0.perBankRdBursts::0            13462                       # Per bank write bursts
system.mem_ctrls0.perBankRdBursts::1            13998                       # Per bank write bursts
system.mem_ctrls0.perBankRdBursts::2            13664                       # Per bank write bursts
system.mem_ctrls0.perBankRdBursts::3            14063                       # Per bank write bursts
system.mem_ctrls0.perBankRdBursts::4            13701                       # Per bank write bursts
system.mem_ctrls0.perBankRdBursts::5            14280                       # Per bank write bursts
system.mem_ctrls0.perBankRdBursts::6            13742                       # Per bank write bursts
system.mem_ctrls0.perBankRdBursts::7            13673                       # Per bank write bursts
system.mem_ctrls0.perBankRdBursts::8            13563                       # Per bank write bursts
system.mem_ctrls0.perBankRdBursts::9            13898                       # Per bank write bursts
system.mem_ctrls0.perBankRdBursts::10           13605                       # Per bank write bursts
system.mem_ctrls0.perBankRdBursts::11           13835                       # Per bank write bursts
system.mem_ctrls0.perBankRdBursts::12           13385                       # Per bank write bursts
system.mem_ctrls0.perBankRdBursts::13           13263                       # Per bank write bursts
system.mem_ctrls0.perBankRdBursts::14           13559                       # Per bank write bursts
system.mem_ctrls0.perBankRdBursts::15           13571                       # Per bank write bursts
system.mem_ctrls0.perBankWrBursts::0             3844                       # Per bank write bursts
system.mem_ctrls0.perBankWrBursts::1             3927                       # Per bank write bursts
system.mem_ctrls0.perBankWrBursts::2             3906                       # Per bank write bursts
system.mem_ctrls0.perBankWrBursts::3             4132                       # Per bank write bursts
system.mem_ctrls0.perBankWrBursts::4             3927                       # Per bank write bursts
system.mem_ctrls0.perBankWrBursts::5             4077                       # Per bank write bursts
system.mem_ctrls0.perBankWrBursts::6             3983                       # Per bank write bursts
system.mem_ctrls0.perBankWrBursts::7             3947                       # Per bank write bursts
system.mem_ctrls0.perBankWrBursts::8             3818                       # Per bank write bursts
system.mem_ctrls0.perBankWrBursts::9             4072                       # Per bank write bursts
system.mem_ctrls0.perBankWrBursts::10            3841                       # Per bank write bursts
system.mem_ctrls0.perBankWrBursts::11            3777                       # Per bank write bursts
system.mem_ctrls0.perBankWrBursts::12            3724                       # Per bank write bursts
system.mem_ctrls0.perBankWrBursts::13            3761                       # Per bank write bursts
system.mem_ctrls0.perBankWrBursts::14            4009                       # Per bank write bursts
system.mem_ctrls0.perBankWrBursts::15            3873                       # Per bank write bursts
system.mem_ctrls0.numRdRetry                      691                       # Number of times read queue was full causing retry
system.mem_ctrls0.numWrRetry                      325                       # Number of times write queue was full causing retry
system.mem_ctrls0.totGap                  59817626500                       # Total gap between requests
system.mem_ctrls0.readPktSize::0                    0                       # Read request sizes (log2)
system.mem_ctrls0.readPktSize::1                    0                       # Read request sizes (log2)
system.mem_ctrls0.readPktSize::2                    0                       # Read request sizes (log2)
system.mem_ctrls0.readPktSize::3                    0                       # Read request sizes (log2)
system.mem_ctrls0.readPktSize::4                    0                       # Read request sizes (log2)
system.mem_ctrls0.readPktSize::5                    0                       # Read request sizes (log2)
system.mem_ctrls0.readPktSize::6               219289                       # Read request sizes (log2)
system.mem_ctrls0.writePktSize::0                   0                       # Write request sizes (log2)
system.mem_ctrls0.writePktSize::1                   0                       # Write request sizes (log2)
system.mem_ctrls0.writePktSize::2                   0                       # Write request sizes (log2)
system.mem_ctrls0.writePktSize::3                   0                       # Write request sizes (log2)
system.mem_ctrls0.writePktSize::4                   0                       # Write request sizes (log2)
system.mem_ctrls0.writePktSize::5                   0                       # Write request sizes (log2)
system.mem_ctrls0.writePktSize::6               62620                       # Write request sizes (log2)
system.mem_ctrls0.rdQLenPdf::0                 160208                       # What read queue length does an incoming req see
system.mem_ctrls0.rdQLenPdf::1                  42409                       # What read queue length does an incoming req see
system.mem_ctrls0.rdQLenPdf::2                  11529                       # What read queue length does an incoming req see
system.mem_ctrls0.rdQLenPdf::3                   2725                       # What read queue length does an incoming req see
system.mem_ctrls0.rdQLenPdf::4                    635                       # What read queue length does an incoming req see
system.mem_ctrls0.rdQLenPdf::5                    202                       # What read queue length does an incoming req see
system.mem_ctrls0.rdQLenPdf::6                     91                       # What read queue length does an incoming req see
system.mem_ctrls0.rdQLenPdf::7                     68                       # What read queue length does an incoming req see
system.mem_ctrls0.rdQLenPdf::8                     53                       # What read queue length does an incoming req see
system.mem_ctrls0.rdQLenPdf::9                     43                       # What read queue length does an incoming req see
system.mem_ctrls0.rdQLenPdf::10                    28                       # What read queue length does an incoming req see
system.mem_ctrls0.rdQLenPdf::11                    29                       # What read queue length does an incoming req see
system.mem_ctrls0.rdQLenPdf::12                    25                       # What read queue length does an incoming req see
system.mem_ctrls0.rdQLenPdf::13                    26                       # What read queue length does an incoming req see
system.mem_ctrls0.rdQLenPdf::14                    20                       # What read queue length does an incoming req see
system.mem_ctrls0.rdQLenPdf::15                    19                       # What read queue length does an incoming req see
system.mem_ctrls0.rdQLenPdf::16                    21                       # What read queue length does an incoming req see
system.mem_ctrls0.rdQLenPdf::17                    30                       # What read queue length does an incoming req see
system.mem_ctrls0.rdQLenPdf::18                    26                       # What read queue length does an incoming req see
system.mem_ctrls0.rdQLenPdf::19                    18                       # What read queue length does an incoming req see
system.mem_ctrls0.rdQLenPdf::20                    21                       # What read queue length does an incoming req see
system.mem_ctrls0.rdQLenPdf::21                    24                       # What read queue length does an incoming req see
system.mem_ctrls0.rdQLenPdf::22                    19                       # What read queue length does an incoming req see
system.mem_ctrls0.rdQLenPdf::23                    15                       # What read queue length does an incoming req see
system.mem_ctrls0.rdQLenPdf::24                    17                       # What read queue length does an incoming req see
system.mem_ctrls0.rdQLenPdf::25                    21                       # What read queue length does an incoming req see
system.mem_ctrls0.rdQLenPdf::26                    23                       # What read queue length does an incoming req see
system.mem_ctrls0.rdQLenPdf::27                    23                       # What read queue length does an incoming req see
system.mem_ctrls0.rdQLenPdf::28                    27                       # What read queue length does an incoming req see
system.mem_ctrls0.rdQLenPdf::29                    32                       # What read queue length does an incoming req see
system.mem_ctrls0.rdQLenPdf::30                    51                       # What read queue length does an incoming req see
system.mem_ctrls0.rdQLenPdf::31                   784                       # What read queue length does an incoming req see
system.mem_ctrls0.wrQLenPdf::0                  12207                       # What write queue length does an incoming req see
system.mem_ctrls0.wrQLenPdf::1                  12409                       # What write queue length does an incoming req see
system.mem_ctrls0.wrQLenPdf::2                  12396                       # What write queue length does an incoming req see
system.mem_ctrls0.wrQLenPdf::3                  12373                       # What write queue length does an incoming req see
system.mem_ctrls0.wrQLenPdf::4                  12345                       # What write queue length does an incoming req see
system.mem_ctrls0.wrQLenPdf::5                    212                       # What write queue length does an incoming req see
system.mem_ctrls0.wrQLenPdf::6                    175                       # What write queue length does an incoming req see
system.mem_ctrls0.wrQLenPdf::7                    503                       # What write queue length does an incoming req see
system.mem_ctrls0.bytesPerActivate::samples        85970                       # Bytes accessed per row activation
system.mem_ctrls0.bytesPerActivate::mean   209.837664                       # Bytes accessed per row activation
system.mem_ctrls0.bytesPerActivate::gmean   135.225030                       # Bytes accessed per row activation
system.mem_ctrls0.bytesPerActivate::stdev   238.655590                       # Bytes accessed per row activation
system.mem_ctrls0.bytesPerActivate::0-127        41971     48.82%     48.82% # Bytes accessed per row activation
system.mem_ctrls0.bytesPerActivate::128-255        17820     20.73%     69.55% # Bytes accessed per row activation
system.mem_ctrls0.bytesPerActivate::256-383        14892     17.32%     86.87% # Bytes accessed per row activation
system.mem_ctrls0.bytesPerActivate::384-511         2639      3.07%     89.94% # Bytes accessed per row activation
system.mem_ctrls0.bytesPerActivate::512-639         1800      2.09%     92.03% # Bytes accessed per row activation
system.mem_ctrls0.bytesPerActivate::640-767         1267      1.47%     93.51% # Bytes accessed per row activation
system.mem_ctrls0.bytesPerActivate::768-895         1062      1.24%     94.74% # Bytes accessed per row activation
system.mem_ctrls0.bytesPerActivate::896-1023          946      1.10%     95.84% # Bytes accessed per row activation
system.mem_ctrls0.bytesPerActivate::1024-1151         3573      4.16%    100.00% # Bytes accessed per row activation
system.mem_ctrls0.bytesPerActivate::total        85970                       # Bytes accessed per row activation
system.mem_ctrls0.rdPerTurnAround::samples        12246                       # Reads before turning the bus around for writes
system.mem_ctrls0.rdPerTurnAround::mean     17.747918                       # Reads before turning the bus around for writes
system.mem_ctrls0.rdPerTurnAround::stdev    76.680253                       # Reads before turning the bus around for writes
system.mem_ctrls0.rdPerTurnAround::0-127        11896     97.14%     97.14% # Reads before turning the bus around for writes
system.mem_ctrls0.rdPerTurnAround::128-255          180      1.47%     98.61% # Reads before turning the bus around for writes
system.mem_ctrls0.rdPerTurnAround::256-383           78      0.64%     99.25% # Reads before turning the bus around for writes
system.mem_ctrls0.rdPerTurnAround::384-511           34      0.28%     99.53% # Reads before turning the bus around for writes
system.mem_ctrls0.rdPerTurnAround::512-639           33      0.27%     99.80% # Reads before turning the bus around for writes
system.mem_ctrls0.rdPerTurnAround::640-767           12      0.10%     99.89% # Reads before turning the bus around for writes
system.mem_ctrls0.rdPerTurnAround::768-895            1      0.01%     99.90% # Reads before turning the bus around for writes
system.mem_ctrls0.rdPerTurnAround::896-1023            4      0.03%     99.93% # Reads before turning the bus around for writes
system.mem_ctrls0.rdPerTurnAround::1024-1151            1      0.01%     99.94% # Reads before turning the bus around for writes
system.mem_ctrls0.rdPerTurnAround::1280-1407            2      0.02%     99.96% # Reads before turning the bus around for writes
system.mem_ctrls0.rdPerTurnAround::1408-1535            2      0.02%     99.98% # Reads before turning the bus around for writes
system.mem_ctrls0.rdPerTurnAround::1536-1663            1      0.01%     99.98% # Reads before turning the bus around for writes
system.mem_ctrls0.rdPerTurnAround::1792-1919            1      0.01%     99.99% # Reads before turning the bus around for writes
system.mem_ctrls0.rdPerTurnAround::3968-4095            1      0.01%    100.00% # Reads before turning the bus around for writes
system.mem_ctrls0.rdPerTurnAround::total        12246                       # Reads before turning the bus around for writes
system.mem_ctrls0.wrPerTurnAround::samples        12246                       # Writes before turning the bus around for reads
system.mem_ctrls0.wrPerTurnAround::mean      5.113343                       # Writes before turning the bus around for reads
system.mem_ctrls0.wrPerTurnAround::gmean     5.078063                       # Writes before turning the bus around for reads
system.mem_ctrls0.wrPerTurnAround::stdev     0.859538                       # Writes before turning the bus around for reads
system.mem_ctrls0.wrPerTurnAround::4-7          12137     99.11%     99.11% # Writes before turning the bus around for reads
system.mem_ctrls0.wrPerTurnAround::8-11            37      0.30%     99.41% # Writes before turning the bus around for reads
system.mem_ctrls0.wrPerTurnAround::12-15           17      0.14%     99.55% # Writes before turning the bus around for reads
system.mem_ctrls0.wrPerTurnAround::16-19           55      0.45%    100.00% # Writes before turning the bus around for reads
system.mem_ctrls0.wrPerTurnAround::total        12246                       # Writes before turning the bus around for reads
system.mem_ctrls0.totQLat                  3083157302                       # Total ticks spent queuing
system.mem_ctrls0.totMemAccLat             7194319802                       # Total ticks spent from burst creation until serviced by the DRAM
system.mem_ctrls0.totBusLat                1096310000                       # Total ticks spent in databus transfers
system.mem_ctrls0.avgQLat                    14061.52                       # Average queueing delay per DRAM burst
system.mem_ctrls0.avgBusLat                   5000.00                       # Average bus latency per DRAM burst
system.mem_ctrls0.avgMemAccLat               32811.52                       # Average memory access latency per DRAM burst
system.mem_ctrls0.avgRdBW                      234.59                       # Average DRAM read bandwidth in MiByte/s
system.mem_ctrls0.avgWrBW                       67.00                       # Average achieved write bandwidth in MiByte/s
system.mem_ctrls0.avgRdBWSys                   234.62                       # Average system read bandwidth in MiByte/s
system.mem_ctrls0.avgWrBWSys                    67.00                       # Average system write bandwidth in MiByte/s
system.mem_ctrls0.peakBW                     12800.00                       # Theoretical peak bandwidth in MiByte/s
system.mem_ctrls0.busUtil                        2.36                       # Data bus utilization in percentage
system.mem_ctrls0.busUtilRead                    1.83                       # Data bus utilization in percentage for reads
system.mem_ctrls0.busUtilWrite                   0.52                       # Data bus utilization in percentage for writes
system.mem_ctrls0.avgRdQLen                      1.12                       # Average read queue length when enqueuing
system.mem_ctrls0.avgWrQLen                      2.87                       # Average write queue length when enqueuing
system.mem_ctrls0.readRowHits                  157442                       # Number of row buffer hits during reads
system.mem_ctrls0.writeRowHits                  38462                       # Number of row buffer hits during writes
system.mem_ctrls0.readRowHitRate                71.81                       # Row buffer hit rate for reads
system.mem_ctrls0.writeRowHitRate               61.42                       # Row buffer hit rate for writes
system.mem_ctrls0.avgGap                    212187.71                       # Average gap between requests
system.mem_ctrls0.pageHitRate                   69.50                       # Row buffer hit rate, read and write combined
system.mem_ctrls0.memoryStateTime::IDLE   10801052500                       # Time in different power states
system.mem_ctrls0.memoryStateTime::REF     1997320000                       # Time in different power states
system.mem_ctrls0.memoryStateTime::PRE_PDN            0                       # Time in different power states
system.mem_ctrls0.memoryStateTime::ACT    47015873750                       # Time in different power states
system.mem_ctrls0.memoryStateTime::ACT_PDN            0                       # Time in different power states
system.mem_ctrls0.actEnergy::0              328761720                       # Energy for activate commands per rank (pJ)
system.mem_ctrls0.actEnergy::1              321141240                       # Energy for activate commands per rank (pJ)
system.mem_ctrls0.preEnergy::0              179383875                       # Energy for precharge commands per rank (pJ)
system.mem_ctrls0.preEnergy::1              175225875                       # Energy for precharge commands per rank (pJ)
system.mem_ctrls0.readEnergy::0             862485000                       # Energy for read commands per rank (pJ)
system.mem_ctrls0.readEnergy::1             847649400                       # Energy for read commands per rank (pJ)
system.mem_ctrls0.writeEnergy::0            205694640                       # Energy for write commands per rank (pJ)
system.mem_ctrls0.writeEnergy::1            200070000                       # Energy for write commands per rank (pJ)
system.mem_ctrls0.refreshEnergy::0         3906757920                       # Energy for refresh commands per rank (pJ)
system.mem_ctrls0.refreshEnergy::1         3906757920                       # Energy for refresh commands per rank (pJ)
system.mem_ctrls0.actBackEnergy::0        25661476665                       # Energy for active background per rank (pJ)
system.mem_ctrls0.actBackEnergy::1        24955044030                       # Energy for active background per rank (pJ)
system.mem_ctrls0.preBackEnergy::0        13378472250                       # Energy for precharge background per rank (pJ)
system.mem_ctrls0.preBackEnergy::1        13998150000                       # Energy for precharge background per rank (pJ)
system.mem_ctrls0.totalEnergy::0          44523032070                       # Total energy per rank (pJ)
system.mem_ctrls0.totalEnergy::1          44404038465                       # Total energy per rank (pJ)
system.mem_ctrls0.averagePower::0          744.355151                       # Core power per rank (mW)
system.mem_ctrls0.averagePower::1          742.365765                       # Core power per rank (mW)
system.mem_ctrls1.bytes_read::ruby.dir_cntrl1     13851072                       # Number of bytes read from this memory
system.mem_ctrls1.bytes_read::total          13851072                       # Number of bytes read from this memory
system.mem_ctrls1.bytes_written::ruby.dir_cntrl1      3840704                       # Number of bytes written to this memory
system.mem_ctrls1.bytes_written::total        3840704                       # Number of bytes written to this memory
system.mem_ctrls1.num_reads::ruby.dir_cntrl1       216423                       # Number of read requests responded to by this memory
system.mem_ctrls1.num_reads::total             216423                       # Number of read requests responded to by this memory
system.mem_ctrls1.num_writes::ruby.dir_cntrl1        60011                       # Number of write requests responded to by this memory
system.mem_ctrls1.num_writes::total             60011                       # Number of write requests responded to by this memory
system.mem_ctrls1.bw_read::ruby.dir_cntrl1    231553122                       # Total read bandwidth from this memory (bytes/s)
system.mem_ctrls1.bw_read::total            231553122                       # Total read bandwidth from this memory (bytes/s)
system.mem_ctrls1.bw_write::ruby.dir_cntrl1     64206366                       # Write bandwidth from this memory (bytes/s)
system.mem_ctrls1.bw_write::total            64206366                       # Write bandwidth from this memory (bytes/s)
system.mem_ctrls1.bw_total::ruby.dir_cntrl1    295759489                       # Total bandwidth to/from this memory (bytes/s)
system.mem_ctrls1.bw_total::total           295759489                       # Total bandwidth to/from this memory (bytes/s)
system.mem_ctrls1.readReqs                     216423                       # Number of read requests accepted
system.mem_ctrls1.writeReqs                     60011                       # Number of write requests accepted
system.mem_ctrls1.readBursts                   216423                       # Number of DRAM read bursts, including those serviced by the write queue
system.mem_ctrls1.writeBursts                   60011                       # Number of DRAM write bursts, including those merged in the write queue
system.mem_ctrls1.bytesReadDRAM              13849792                       # Total number of bytes read from DRAM
system.mem_ctrls1.bytesReadWrQ                   1280                       # Total number of bytes read from write queue
system.mem_ctrls1.bytesWritten                3840448                       # Total number of bytes written to DRAM
system.mem_ctrls1.bytesReadSys               13851072                       # Total read bytes from the system interface side
system.mem_ctrls1.bytesWrittenSys             3840704                       # Total written bytes from the system interface side
system.mem_ctrls1.servicedByWrQ                    20                       # Number of DRAM read bursts serviced by the write queue
system.mem_ctrls1.mergedWrBursts                    0                       # Number of DRAM write bursts merged with an existing one
system.mem_ctrls1.neitherReadNorWriteReqs            0                       # Number of requests that are neither read nor write
system.mem_ctrls1.perBankRdBursts::0            13291                       # Per bank write bursts
system.mem_ctrls1.perBankRdBursts::1            13819                       # Per bank write bursts
system.mem_ctrls1.perBankRdBursts::2            13485                       # Per bank write bursts
system.mem_ctrls1.perBankRdBursts::3            13893                       # Per bank write bursts
system.mem_ctrls1.perBankRdBursts::4            13534                       # Per bank write bursts
system.mem_ctrls1.perBankRdBursts::5            14117                       # Per bank write bursts
system.mem_ctrls1.perBankRdBursts::6            13533                       # Per bank write bursts
system.mem_ctrls1.perBankRdBursts::7            13509                       # Per bank write bursts
system.mem_ctrls1.perBankRdBursts::8            13401                       # Per bank write bursts
system.mem_ctrls1.perBankRdBursts::9            13712                       # Per bank write bursts
system.mem_ctrls1.perBankRdBursts::10           13420                       # Per bank write bursts
system.mem_ctrls1.perBankRdBursts::11           13659                       # Per bank write bursts
system.mem_ctrls1.perBankRdBursts::12           13210                       # Per bank write bursts
system.mem_ctrls1.perBankRdBursts::13           13105                       # Per bank write bursts
system.mem_ctrls1.perBankRdBursts::14           13294                       # Per bank write bursts
system.mem_ctrls1.perBankRdBursts::15           13421                       # Per bank write bursts
system.mem_ctrls1.perBankWrBursts::0             3686                       # Per bank write bursts
system.mem_ctrls1.perBankWrBursts::1             3780                       # Per bank write bursts
system.mem_ctrls1.perBankWrBursts::2             3765                       # Per bank write bursts
system.mem_ctrls1.perBankWrBursts::3             3979                       # Per bank write bursts
system.mem_ctrls1.perBankWrBursts::4             3771                       # Per bank write bursts
system.mem_ctrls1.perBankWrBursts::5             3923                       # Per bank write bursts
system.mem_ctrls1.perBankWrBursts::6             3803                       # Per bank write bursts
system.mem_ctrls1.perBankWrBursts::7             3779                       # Per bank write bursts
system.mem_ctrls1.perBankWrBursts::8             3663                       # Per bank write bursts
system.mem_ctrls1.perBankWrBursts::9             3898                       # Per bank write bursts
system.mem_ctrls1.perBankWrBursts::10            3678                       # Per bank write bursts
system.mem_ctrls1.perBankWrBursts::11            3611                       # Per bank write bursts
system.mem_ctrls1.perBankWrBursts::12            3566                       # Per bank write bursts
system.mem_ctrls1.perBankWrBursts::13            3595                       # Per bank write bursts
system.mem_ctrls1.perBankWrBursts::14            3794                       # Per bank write bursts
system.mem_ctrls1.perBankWrBursts::15            3716                       # Per bank write bursts
system.mem_ctrls1.numRdRetry                      446                       # Number of times read queue was full causing retry
system.mem_ctrls1.numWrRetry                      241                       # Number of times write queue was full causing retry
system.mem_ctrls1.totGap                  59817367500                       # Total gap between requests
system.mem_ctrls1.readPktSize::0                    0                       # Read request sizes (log2)
system.mem_ctrls1.readPktSize::1                    0                       # Read request sizes (log2)
system.mem_ctrls1.readPktSize::2                    0                       # Read request sizes (log2)
system.mem_ctrls1.readPktSize::3                    0                       # Read request sizes (log2)
system.mem_ctrls1.readPktSize::4                    0                       # Read request sizes (log2)
system.mem_ctrls1.readPktSize::5                    0                       # Read request sizes (log2)
system.mem_ctrls1.readPktSize::6               216423                       # Read request sizes (log2)
system.mem_ctrls1.writePktSize::0                   0                       # Write request sizes (log2)
system.mem_ctrls1.writePktSize::1                   0                       # Write request sizes (log2)
system.mem_ctrls1.writePktSize::2                   0                       # Write request sizes (log2)
system.mem_ctrls1.writePktSize::3                   0                       # Write request sizes (log2)
system.mem_ctrls1.writePktSize::4                   0                       # Write request sizes (log2)
system.mem_ctrls1.writePktSize::5                   0                       # Write request sizes (log2)
system.mem_ctrls1.writePktSize::6               60011                       # Write request sizes (log2)
system.mem_ctrls1.rdQLenPdf::0                 157984                       # What read queue length does an incoming req see
system.mem_ctrls1.rdQLenPdf::1                  42846                       # What read queue length does an incoming req see
system.mem_ctrls1.rdQLenPdf::2                  11064                       # What read queue length does an incoming req see
system.mem_ctrls1.rdQLenPdf::3                   2471                       # What read queue length does an incoming req see
system.mem_ctrls1.rdQLenPdf::4                    543                       # What read queue length does an incoming req see
system.mem_ctrls1.rdQLenPdf::5                    186                       # What read queue length does an incoming req see
system.mem_ctrls1.rdQLenPdf::6                     89                       # What read queue length does an incoming req see
system.mem_ctrls1.rdQLenPdf::7                     67                       # What read queue length does an incoming req see
system.mem_ctrls1.rdQLenPdf::8                     46                       # What read queue length does an incoming req see
system.mem_ctrls1.rdQLenPdf::9                     47                       # What read queue length does an incoming req see
system.mem_ctrls1.rdQLenPdf::10                    59                       # What read queue length does an incoming req see
system.mem_ctrls1.rdQLenPdf::11                    54                       # What read queue length does an incoming req see
system.mem_ctrls1.rdQLenPdf::12                    38                       # What read queue length does an incoming req see
system.mem_ctrls1.rdQLenPdf::13                    37                       # What read queue length does an incoming req see
system.mem_ctrls1.rdQLenPdf::14                    25                       # What read queue length does an incoming req see
system.mem_ctrls1.rdQLenPdf::15                    26                       # What read queue length does an incoming req see
system.mem_ctrls1.rdQLenPdf::16                    40                       # What read queue length does an incoming req see
system.mem_ctrls1.rdQLenPdf::17                    36                       # What read queue length does an incoming req see
system.mem_ctrls1.rdQLenPdf::18                    38                       # What read queue length does an incoming req see
system.mem_ctrls1.rdQLenPdf::19                    29                       # What read queue length does an incoming req see
system.mem_ctrls1.rdQLenPdf::20                    23                       # What read queue length does an incoming req see
system.mem_ctrls1.rdQLenPdf::21                    21                       # What read queue length does an incoming req see
system.mem_ctrls1.rdQLenPdf::22                    22                       # What read queue length does an incoming req see
system.mem_ctrls1.rdQLenPdf::23                    22                       # What read queue length does an incoming req see
system.mem_ctrls1.rdQLenPdf::24                    15                       # What read queue length does an incoming req see
system.mem_ctrls1.rdQLenPdf::25                    13                       # What read queue length does an incoming req see
system.mem_ctrls1.rdQLenPdf::26                    15                       # What read queue length does an incoming req see
system.mem_ctrls1.rdQLenPdf::27                    12                       # What read queue length does an incoming req see
system.mem_ctrls1.rdQLenPdf::28                    13                       # What read queue length does an incoming req see
system.mem_ctrls1.rdQLenPdf::29                    10                       # What read queue length does an incoming req see
system.mem_ctrls1.rdQLenPdf::30                    10                       # What read queue length does an incoming req see
system.mem_ctrls1.rdQLenPdf::31                   502                       # What read queue length does an incoming req see
system.mem_ctrls1.wrQLenPdf::0                  11699                       # What write queue length does an incoming req see
system.mem_ctrls1.wrQLenPdf::1                  11915                       # What write queue length does an incoming req see
system.mem_ctrls1.wrQLenPdf::2                  11900                       # What write queue length does an incoming req see
system.mem_ctrls1.wrQLenPdf::3                  11862                       # What write queue length does an incoming req see
system.mem_ctrls1.wrQLenPdf::4                  11852                       # What write queue length does an incoming req see
system.mem_ctrls1.wrQLenPdf::5                    220                       # What write queue length does an incoming req see
system.mem_ctrls1.wrQLenPdf::6                    148                       # What write queue length does an incoming req see
system.mem_ctrls1.wrQLenPdf::7                    415                       # What write queue length does an incoming req see
system.mem_ctrls1.bytesPerActivate::samples        81675                       # Bytes accessed per row activation
system.mem_ctrls1.bytesPerActivate::mean   216.582896                       # Bytes accessed per row activation
system.mem_ctrls1.bytesPerActivate::gmean   138.837660                       # Bytes accessed per row activation
system.mem_ctrls1.bytesPerActivate::stdev   244.301480                       # Bytes accessed per row activation
system.mem_ctrls1.bytesPerActivate::0-127        38729     47.42%     47.42% # Bytes accessed per row activation
system.mem_ctrls1.bytesPerActivate::128-255        17081     20.91%     68.33% # Bytes accessed per row activation
system.mem_ctrls1.bytesPerActivate::256-383        14474     17.72%     86.05% # Bytes accessed per row activation
system.mem_ctrls1.bytesPerActivate::384-511         2603      3.19%     89.24% # Bytes accessed per row activation
system.mem_ctrls1.bytesPerActivate::512-639         1856      2.27%     91.51% # Bytes accessed per row activation
system.mem_ctrls1.bytesPerActivate::640-767         1298      1.59%     93.10% # Bytes accessed per row activation
system.mem_ctrls1.bytesPerActivate::768-895         1047      1.28%     94.38% # Bytes accessed per row activation
system.mem_ctrls1.bytesPerActivate::896-1023          946      1.16%     95.54% # Bytes accessed per row activation
system.mem_ctrls1.bytesPerActivate::1024-1151         3641      4.46%    100.00% # Bytes accessed per row activation
system.mem_ctrls1.bytesPerActivate::total        81675                       # Bytes accessed per row activation
system.mem_ctrls1.rdPerTurnAround::samples        11731                       # Reads before turning the bus around for writes
system.mem_ctrls1.rdPerTurnAround::mean     18.281050                       # Reads before turning the bus around for writes
system.mem_ctrls1.rdPerTurnAround::stdev    78.335687                       # Reads before turning the bus around for writes
system.mem_ctrls1.rdPerTurnAround::0-127        11398     97.16%     97.16% # Reads before turning the bus around for writes
system.mem_ctrls1.rdPerTurnAround::128-255          155      1.32%     98.48% # Reads before turning the bus around for writes
system.mem_ctrls1.rdPerTurnAround::256-383           78      0.66%     99.15% # Reads before turning the bus around for writes
system.mem_ctrls1.rdPerTurnAround::384-511           41      0.35%     99.50% # Reads before turning the bus around for writes
system.mem_ctrls1.rdPerTurnAround::512-639           31      0.26%     99.76% # Reads before turning the bus around for writes
system.mem_ctrls1.rdPerTurnAround::640-767           10      0.09%     99.85% # Reads before turning the bus around for writes
system.mem_ctrls1.rdPerTurnAround::768-895            6      0.05%     99.90% # Reads before turning the bus around for writes
system.mem_ctrls1.rdPerTurnAround::896-1023            4      0.03%     99.93% # Reads before turning the bus around for writes
system.mem_ctrls1.rdPerTurnAround::1152-1279            1      0.01%     99.94% # Reads before turning the bus around for writes
system.mem_ctrls1.rdPerTurnAround::1536-1663            2      0.02%     99.96% # Reads before turning the bus around for writes
system.mem_ctrls1.rdPerTurnAround::1664-1791            2      0.02%     99.97% # Reads before turning the bus around for writes
system.mem_ctrls1.rdPerTurnAround::1792-1919            1      0.01%     99.98% # Reads before turning the bus around for writes
system.mem_ctrls1.rdPerTurnAround::1920-2047            1      0.01%     99.99% # Reads before turning the bus around for writes
system.mem_ctrls1.rdPerTurnAround::2816-2943            1      0.01%    100.00% # Reads before turning the bus around for writes
system.mem_ctrls1.rdPerTurnAround::total        11731                       # Reads before turning the bus around for writes
system.mem_ctrls1.wrPerTurnAround::samples        11731                       # Writes before turning the bus around for reads
system.mem_ctrls1.wrPerTurnAround::mean      5.115250                       # Writes before turning the bus around for reads
system.mem_ctrls1.wrPerTurnAround::gmean     5.080763                       # Writes before turning the bus around for reads
system.mem_ctrls1.wrPerTurnAround::stdev     0.840786                       # Writes before turning the bus around for reads
system.mem_ctrls1.wrPerTurnAround::4-7          11612     98.99%     98.99% # Writes before turning the bus around for reads
system.mem_ctrls1.wrPerTurnAround::8-11            54      0.46%     99.45% # Writes before turning the bus around for reads
system.mem_ctrls1.wrPerTurnAround::12-15           18      0.15%     99.60% # Writes before turning the bus around for reads
system.mem_ctrls1.wrPerTurnAround::16-19           47      0.40%    100.00% # Writes before turning the bus around for reads
system.mem_ctrls1.wrPerTurnAround::total        11731                       # Writes before turning the bus around for reads
system.mem_ctrls1.totQLat                  2855105853                       # Total ticks spent queuing
system.mem_ctrls1.totMemAccLat             6912662103                       # Total ticks spent from burst creation until serviced by the DRAM
system.mem_ctrls1.totBusLat                1082015000                       # Total ticks spent in databus transfers
system.mem_ctrls1.avgQLat                    13193.47                       # Average queueing delay per DRAM burst
system.mem_ctrls1.avgBusLat                   5000.00                       # Average bus latency per DRAM burst
system.mem_ctrls1.avgMemAccLat               31943.47                       # Average memory access latency per DRAM burst
system.mem_ctrls1.avgRdBW                      231.53                       # Average DRAM read bandwidth in MiByte/s
system.mem_ctrls1.avgWrBW                       64.20                       # Average achieved write bandwidth in MiByte/s
system.mem_ctrls1.avgRdBWSys                   231.55                       # Average system read bandwidth in MiByte/s
system.mem_ctrls1.avgWrBWSys                    64.21                       # Average system write bandwidth in MiByte/s
system.mem_ctrls1.peakBW                     12800.00                       # Theoretical peak bandwidth in MiByte/s
system.mem_ctrls1.busUtil                        2.31                       # Data bus utilization in percentage
system.mem_ctrls1.busUtilRead                    1.81                       # Data bus utilization in percentage for reads
system.mem_ctrls1.busUtilWrite                   0.50                       # Data bus utilization in percentage for writes
system.mem_ctrls1.avgRdQLen                      1.10                       # Average read queue length when enqueuing
system.mem_ctrls1.avgWrQLen                      2.91                       # Average write queue length when enqueuing
system.mem_ctrls1.readRowHits                  156009                       # Number of row buffer hits during reads
system.mem_ctrls1.writeRowHits                  38720                       # Number of row buffer hits during writes
system.mem_ctrls1.readRowHitRate                72.09                       # Row buffer hit rate for reads
system.mem_ctrls1.writeRowHitRate               64.52                       # Row buffer hit rate for writes
system.mem_ctrls1.avgGap                    216389.33                       # Average gap between requests
system.mem_ctrls1.pageHitRate                   70.45                       # Row buffer hit rate, read and write combined
system.mem_ctrls1.memoryStateTime::IDLE   11224692750                       # Time in different power states
system.mem_ctrls1.memoryStateTime::REF     1997320000                       # Time in different power states
system.mem_ctrls1.memoryStateTime::PRE_PDN            0                       # Time in different power states
system.mem_ctrls1.memoryStateTime::ACT    46593016250                       # Time in different power states
system.mem_ctrls1.memoryStateTime::ACT_PDN            0                       # Time in different power states
system.mem_ctrls1.actEnergy::0              312961320                       # Energy for activate commands per rank (pJ)
system.mem_ctrls1.actEnergy::1              304501680                       # Energy for activate commands per rank (pJ)
system.mem_ctrls1.preEnergy::0              170762625                       # Energy for precharge commands per rank (pJ)
system.mem_ctrls1.preEnergy::1              166146750                       # Energy for precharge commands per rank (pJ)
system.mem_ctrls1.readEnergy::0             851549400                       # Energy for read commands per rank (pJ)
system.mem_ctrls1.readEnergy::1             836292600                       # Energy for read commands per rank (pJ)
system.mem_ctrls1.writeEnergy::0            197549280                       # Energy for write commands per rank (pJ)
system.mem_ctrls1.writeEnergy::1            191296080                       # Energy for write commands per rank (pJ)
system.mem_ctrls1.refreshEnergy::0         3906757920                       # Energy for refresh commands per rank (pJ)
system.mem_ctrls1.refreshEnergy::1         3906757920                       # Energy for refresh commands per rank (pJ)
system.mem_ctrls1.actBackEnergy::0        25347107700                       # Energy for active background per rank (pJ)
system.mem_ctrls1.actBackEnergy::1        24382312875                       # Energy for active background per rank (pJ)
system.mem_ctrls1.preBackEnergy::0        13654234500                       # Energy for precharge background per rank (pJ)
system.mem_ctrls1.preBackEnergy::1        14500545750                       # Energy for precharge background per rank (pJ)
system.mem_ctrls1.totalEnergy::0          44440922745                       # Total energy per rank (pJ)
system.mem_ctrls1.totalEnergy::1          44287853655                       # Total energy per rank (pJ)
system.mem_ctrls1.averagePower::0          742.982412                       # Core power per rank (mW)
system.mem_ctrls1.averagePower::1          740.423337                       # Core power per rank (mW)
system.mem_ctrls2.bytes_read::ruby.dir_cntrl2     13851968                       # Number of bytes read from this memory
system.mem_ctrls2.bytes_read::total          13851968                       # Number of bytes read from this memory
system.mem_ctrls2.bytes_written::ruby.dir_cntrl2      3841920                       # Number of bytes written to this memory
system.mem_ctrls2.bytes_written::total        3841920                       # Number of bytes written to this memory
system.mem_ctrls2.num_reads::ruby.dir_cntrl2       216437                       # Number of read requests responded to by this memory
system.mem_ctrls2.num_reads::total             216437                       # Number of read requests responded to by this memory
system.mem_ctrls2.num_writes::ruby.dir_cntrl2        60030                       # Number of write requests responded to by this memory
system.mem_ctrls2.num_writes::total             60030                       # Number of write requests responded to by this memory
system.mem_ctrls2.bw_read::ruby.dir_cntrl2    231568101                       # Total read bandwidth from this memory (bytes/s)
system.mem_ctrls2.bw_read::total            231568101                       # Total read bandwidth from this memory (bytes/s)
system.mem_ctrls2.bw_write::ruby.dir_cntrl2     64226695                       # Write bandwidth from this memory (bytes/s)
system.mem_ctrls2.bw_write::total            64226695                       # Write bandwidth from this memory (bytes/s)
system.mem_ctrls2.bw_total::ruby.dir_cntrl2    295794796                       # Total bandwidth to/from this memory (bytes/s)
system.mem_ctrls2.bw_total::total           295794796                       # Total bandwidth to/from this memory (bytes/s)
system.mem_ctrls2.readReqs                     216437                       # Number of read requests accepted
system.mem_ctrls2.writeReqs                     60030                       # Number of write requests accepted
system.mem_ctrls2.readBursts                   216437                       # Number of DRAM read bursts, including those serviced by the write queue
system.mem_ctrls2.writeBursts                   60030                       # Number of DRAM write bursts, including those merged in the write queue
system.mem_ctrls2.bytesReadDRAM              13851200                       # Total number of bytes read from DRAM
system.mem_ctrls2.bytesReadWrQ                    768                       # Total number of bytes read from write queue
system.mem_ctrls2.bytesWritten                3841728                       # Total number of bytes written to DRAM
system.mem_ctrls2.bytesReadSys               13851968                       # Total read bytes from the system interface side
system.mem_ctrls2.bytesWrittenSys             3841920                       # Total written bytes from the system interface side
system.mem_ctrls2.servicedByWrQ                    12                       # Number of DRAM read bursts serviced by the write queue
system.mem_ctrls2.mergedWrBursts                    0                       # Number of DRAM write bursts merged with an existing one
system.mem_ctrls2.neitherReadNorWriteReqs            0                       # Number of requests that are neither read nor write
system.mem_ctrls2.perBankRdBursts::0            13292                       # Per bank write bursts
system.mem_ctrls2.perBankRdBursts::1            13833                       # Per bank write bursts
system.mem_ctrls2.perBankRdBursts::2            13508                       # Per bank write bursts
system.mem_ctrls2.perBankRdBursts::3            13918                       # Per bank write bursts
system.mem_ctrls2.perBankRdBursts::4            13547                       # Per bank write bursts
system.mem_ctrls2.perBankRdBursts::5            14108                       # Per bank write bursts
system.mem_ctrls2.perBankRdBursts::6            13493                       # Per bank write bursts
system.mem_ctrls2.perBankRdBursts::7            13499                       # Per bank write bursts
system.mem_ctrls2.perBankRdBursts::8            13395                       # Per bank write bursts
system.mem_ctrls2.perBankRdBursts::9            13711                       # Per bank write bursts
system.mem_ctrls2.perBankRdBursts::10           13426                       # Per bank write bursts
system.mem_ctrls2.perBankRdBursts::11           13701                       # Per bank write bursts
system.mem_ctrls2.perBankRdBursts::12           13205                       # Per bank write bursts
system.mem_ctrls2.perBankRdBursts::13           13068                       # Per bank write bursts
system.mem_ctrls2.perBankRdBursts::14           13299                       # Per bank write bursts
system.mem_ctrls2.perBankRdBursts::15           13422                       # Per bank write bursts
system.mem_ctrls2.perBankWrBursts::0             3680                       # Per bank write bursts
system.mem_ctrls2.perBankWrBursts::1             3777                       # Per bank write bursts
system.mem_ctrls2.perBankWrBursts::2             3762                       # Per bank write bursts
system.mem_ctrls2.perBankWrBursts::3             3992                       # Per bank write bursts
system.mem_ctrls2.perBankWrBursts::4             3770                       # Per bank write bursts
system.mem_ctrls2.perBankWrBursts::5             3914                       # Per bank write bursts
system.mem_ctrls2.perBankWrBursts::6             3812                       # Per bank write bursts
system.mem_ctrls2.perBankWrBursts::7             3786                       # Per bank write bursts
system.mem_ctrls2.perBankWrBursts::8             3665                       # Per bank write bursts
system.mem_ctrls2.perBankWrBursts::9             3906                       # Per bank write bursts
system.mem_ctrls2.perBankWrBursts::10            3673                       # Per bank write bursts
system.mem_ctrls2.perBankWrBursts::11            3608                       # Per bank write bursts
system.mem_ctrls2.perBankWrBursts::12            3575                       # Per bank write bursts
system.mem_ctrls2.perBankWrBursts::13            3589                       # Per bank write bursts
system.mem_ctrls2.perBankWrBursts::14            3799                       # Per bank write bursts
system.mem_ctrls2.perBankWrBursts::15            3719                       # Per bank write bursts
system.mem_ctrls2.numRdRetry                      446                       # Number of times read queue was full causing retry
system.mem_ctrls2.numWrRetry                      256                       # Number of times write queue was full causing retry
system.mem_ctrls2.totGap                  59817414500                       # Total gap between requests
system.mem_ctrls2.readPktSize::0                    0                       # Read request sizes (log2)
system.mem_ctrls2.readPktSize::1                    0                       # Read request sizes (log2)
system.mem_ctrls2.readPktSize::2                    0                       # Read request sizes (log2)
system.mem_ctrls2.readPktSize::3                    0                       # Read request sizes (log2)
system.mem_ctrls2.readPktSize::4                    0                       # Read request sizes (log2)
system.mem_ctrls2.readPktSize::5                    0                       # Read request sizes (log2)
system.mem_ctrls2.readPktSize::6               216437                       # Read request sizes (log2)
system.mem_ctrls2.writePktSize::0                   0                       # Write request sizes (log2)
system.mem_ctrls2.writePktSize::1                   0                       # Write request sizes (log2)
system.mem_ctrls2.writePktSize::2                   0                       # Write request sizes (log2)
system.mem_ctrls2.writePktSize::3                   0                       # Write request sizes (log2)
system.mem_ctrls2.writePktSize::4                   0                       # Write request sizes (log2)
system.mem_ctrls2.writePktSize::5                   0                       # Write request sizes (log2)
system.mem_ctrls2.writePktSize::6               60030                       # Write request sizes (log2)
system.mem_ctrls2.rdQLenPdf::0                 158338                       # What read queue length does an incoming req see
system.mem_ctrls2.rdQLenPdf::1                  42442                       # What read queue length does an incoming req see
system.mem_ctrls2.rdQLenPdf::2                  11044                       # What read queue length does an incoming req see
system.mem_ctrls2.rdQLenPdf::3                   2542                       # What read queue length does an incoming req see
system.mem_ctrls2.rdQLenPdf::4                    543                       # What read queue length does an incoming req see
system.mem_ctrls2.rdQLenPdf::5                    173                       # What read queue length does an incoming req see
system.mem_ctrls2.rdQLenPdf::6                    107                       # What read queue length does an incoming req see
system.mem_ctrls2.rdQLenPdf::7                     73                       # What read queue length does an incoming req see
system.mem_ctrls2.rdQLenPdf::8                     69                       # What read queue length does an incoming req see
system.mem_ctrls2.rdQLenPdf::9                     54                       # What read queue length does an incoming req see
system.mem_ctrls2.rdQLenPdf::10                    46                       # What read queue length does an incoming req see
system.mem_ctrls2.rdQLenPdf::11                    39                       # What read queue length does an incoming req see
system.mem_ctrls2.rdQLenPdf::12                    40                       # What read queue length does an incoming req see
system.mem_ctrls2.rdQLenPdf::13                    37                       # What read queue length does an incoming req see
system.mem_ctrls2.rdQLenPdf::14                    36                       # What read queue length does an incoming req see
system.mem_ctrls2.rdQLenPdf::15                    31                       # What read queue length does an incoming req see
system.mem_ctrls2.rdQLenPdf::16                    28                       # What read queue length does an incoming req see
system.mem_ctrls2.rdQLenPdf::17                    24                       # What read queue length does an incoming req see
system.mem_ctrls2.rdQLenPdf::18                    18                       # What read queue length does an incoming req see
system.mem_ctrls2.rdQLenPdf::19                    28                       # What read queue length does an incoming req see
system.mem_ctrls2.rdQLenPdf::20                    33                       # What read queue length does an incoming req see
system.mem_ctrls2.rdQLenPdf::21                    20                       # What read queue length does an incoming req see
system.mem_ctrls2.rdQLenPdf::22                    19                       # What read queue length does an incoming req see
system.mem_ctrls2.rdQLenPdf::23                    24                       # What read queue length does an incoming req see
system.mem_ctrls2.rdQLenPdf::24                    17                       # What read queue length does an incoming req see
system.mem_ctrls2.rdQLenPdf::25                    20                       # What read queue length does an incoming req see
system.mem_ctrls2.rdQLenPdf::26                    24                       # What read queue length does an incoming req see
system.mem_ctrls2.rdQLenPdf::27                    17                       # What read queue length does an incoming req see
system.mem_ctrls2.rdQLenPdf::28                    15                       # What read queue length does an incoming req see
system.mem_ctrls2.rdQLenPdf::29                    15                       # What read queue length does an incoming req see
system.mem_ctrls2.rdQLenPdf::30                    16                       # What read queue length does an incoming req see
system.mem_ctrls2.rdQLenPdf::31                   493                       # What read queue length does an incoming req see
system.mem_ctrls2.wrQLenPdf::0                  11714                       # What write queue length does an incoming req see
system.mem_ctrls2.wrQLenPdf::1                  11884                       # What write queue length does an incoming req see
system.mem_ctrls2.wrQLenPdf::2                  11873                       # What write queue length does an incoming req see
system.mem_ctrls2.wrQLenPdf::3                  11903                       # What write queue length does an incoming req see
system.mem_ctrls2.wrQLenPdf::4                  11847                       # What write queue length does an incoming req see
system.mem_ctrls2.wrQLenPdf::5                    200                       # What write queue length does an incoming req see
system.mem_ctrls2.wrQLenPdf::6                    162                       # What write queue length does an incoming req see
system.mem_ctrls2.wrQLenPdf::7                    447                       # What write queue length does an incoming req see
system.mem_ctrls2.bytesPerActivate::samples        81631                       # Bytes accessed per row activation
system.mem_ctrls2.bytesPerActivate::mean   216.733349                       # Bytes accessed per row activation
system.mem_ctrls2.bytesPerActivate::gmean   138.815392                       # Bytes accessed per row activation
system.mem_ctrls2.bytesPerActivate::stdev   244.479156                       # Bytes accessed per row activation
system.mem_ctrls2.bytesPerActivate::0-127        38821     47.56%     47.56% # Bytes accessed per row activation
system.mem_ctrls2.bytesPerActivate::128-255        16757     20.53%     68.08% # Bytes accessed per row activation
system.mem_ctrls2.bytesPerActivate::256-383        14619     17.91%     85.99% # Bytes accessed per row activation
system.mem_ctrls2.bytesPerActivate::384-511         2618      3.21%     89.20% # Bytes accessed per row activation
system.mem_ctrls2.bytesPerActivate::512-639         1853      2.27%     91.47% # Bytes accessed per row activation
system.mem_ctrls2.bytesPerActivate::640-767         1322      1.62%     93.09% # Bytes accessed per row activation
system.mem_ctrls2.bytesPerActivate::768-895         1044      1.28%     94.37% # Bytes accessed per row activation
system.mem_ctrls2.bytesPerActivate::896-1023          964      1.18%     95.55% # Bytes accessed per row activation
system.mem_ctrls2.bytesPerActivate::1024-1151         3633      4.45%    100.00% # Bytes accessed per row activation
system.mem_ctrls2.bytesPerActivate::total        81631                       # Bytes accessed per row activation
system.mem_ctrls2.rdPerTurnAround::samples        11746                       # Reads before turning the bus around for writes
system.mem_ctrls2.rdPerTurnAround::mean     18.281798                       # Reads before turning the bus around for writes
system.mem_ctrls2.rdPerTurnAround::stdev    76.702051                       # Reads before turning the bus around for writes
system.mem_ctrls2.rdPerTurnAround::0-127        11410     97.14%     97.14% # Reads before turning the bus around for writes
system.mem_ctrls2.rdPerTurnAround::128-255          152      1.29%     98.43% # Reads before turning the bus around for writes
system.mem_ctrls2.rdPerTurnAround::256-383           77      0.66%     99.09% # Reads before turning the bus around for writes
system.mem_ctrls2.rdPerTurnAround::384-511           44      0.37%     99.46% # Reads before turning the bus around for writes
system.mem_ctrls2.rdPerTurnAround::512-639           34      0.29%     99.75% # Reads before turning the bus around for writes
system.mem_ctrls2.rdPerTurnAround::640-767           15      0.13%     99.88% # Reads before turning the bus around for writes
system.mem_ctrls2.rdPerTurnAround::768-895            2      0.02%     99.90% # Reads before turning the bus around for writes
system.mem_ctrls2.rdPerTurnAround::896-1023            4      0.03%     99.93% # Reads before turning the bus around for writes
system.mem_ctrls2.rdPerTurnAround::1152-1279            2      0.02%     99.95% # Reads before turning the bus around for writes
system.mem_ctrls2.rdPerTurnAround::1280-1407            1      0.01%     99.96% # Reads before turning the bus around for writes
system.mem_ctrls2.rdPerTurnAround::1536-1663            2      0.02%     99.97% # Reads before turning the bus around for writes
system.mem_ctrls2.rdPerTurnAround::1792-1919            1      0.01%     99.98% # Reads before turning the bus around for writes
system.mem_ctrls2.rdPerTurnAround::1920-2047            1      0.01%     99.99% # Reads before turning the bus around for writes
system.mem_ctrls2.rdPerTurnAround::2816-2943            1      0.01%    100.00% # Reads before turning the bus around for writes
system.mem_ctrls2.rdPerTurnAround::total        11746                       # Reads before turning the bus around for writes
system.mem_ctrls2.wrPerTurnAround::samples        11746                       # Writes before turning the bus around for reads
system.mem_ctrls2.wrPerTurnAround::mean      5.110421                       # Writes before turning the bus around for reads
system.mem_ctrls2.wrPerTurnAround::gmean     5.076431                       # Writes before turning the bus around for reads
system.mem_ctrls2.wrPerTurnAround::stdev     0.837996                       # Writes before turning the bus around for reads
system.mem_ctrls2.wrPerTurnAround::4-7          11633     99.04%     99.04% # Writes before turning the bus around for reads
system.mem_ctrls2.wrPerTurnAround::8-11            47      0.40%     99.44% # Writes before turning the bus around for reads
system.mem_ctrls2.wrPerTurnAround::12-15           18      0.15%     99.59% # Writes before turning the bus around for reads
system.mem_ctrls2.wrPerTurnAround::16-19           48      0.41%    100.00% # Writes before turning the bus around for reads
system.mem_ctrls2.wrPerTurnAround::total        11746                       # Writes before turning the bus around for reads
system.mem_ctrls2.totQLat                  2891379397                       # Total ticks spent queuing
system.mem_ctrls2.totMemAccLat             6949348147                       # Total ticks spent from burst creation until serviced by the DRAM
system.mem_ctrls2.totBusLat                1082125000                       # Total ticks spent in databus transfers
system.mem_ctrls2.avgQLat                    13359.73                       # Average queueing delay per DRAM burst
system.mem_ctrls2.avgBusLat                   5000.00                       # Average bus latency per DRAM burst
system.mem_ctrls2.avgMemAccLat               32109.73                       # Average memory access latency per DRAM burst
system.mem_ctrls2.avgRdBW                      231.56                       # Average DRAM read bandwidth in MiByte/s
system.mem_ctrls2.avgWrBW                       64.22                       # Average achieved write bandwidth in MiByte/s
system.mem_ctrls2.avgRdBWSys                   231.57                       # Average system read bandwidth in MiByte/s
system.mem_ctrls2.avgWrBWSys                    64.23                       # Average system write bandwidth in MiByte/s
system.mem_ctrls2.peakBW                     12800.00                       # Theoretical peak bandwidth in MiByte/s
system.mem_ctrls2.busUtil                        2.31                       # Data bus utilization in percentage
system.mem_ctrls2.busUtilRead                    1.81                       # Data bus utilization in percentage for reads
system.mem_ctrls2.busUtilWrite                   0.50                       # Data bus utilization in percentage for writes
system.mem_ctrls2.avgRdQLen                      1.10                       # Average read queue length when enqueuing
system.mem_ctrls2.avgWrQLen                      2.99                       # Average write queue length when enqueuing
system.mem_ctrls2.readRowHits                  156055                       # Number of row buffer hits during reads
system.mem_ctrls2.writeRowHits                  38759                       # Number of row buffer hits during writes
system.mem_ctrls2.readRowHitRate                72.11                       # Row buffer hit rate for reads
system.mem_ctrls2.writeRowHitRate               64.57                       # Row buffer hit rate for writes
system.mem_ctrls2.avgGap                    216363.67                       # Average gap between requests
system.mem_ctrls2.pageHitRate                   70.47                       # Row buffer hit rate, read and write combined
system.mem_ctrls2.memoryStateTime::IDLE   11129206000                       # Time in different power states
system.mem_ctrls2.memoryStateTime::REF     1997320000                       # Time in different power states
system.mem_ctrls2.memoryStateTime::PRE_PDN            0                       # Time in different power states
system.mem_ctrls2.memoryStateTime::ACT    46688660000                       # Time in different power states
system.mem_ctrls2.memoryStateTime::ACT_PDN            0                       # Time in different power states
system.mem_ctrls2.actEnergy::0              313052040                       # Energy for activate commands per rank (pJ)
system.mem_ctrls2.actEnergy::1              304070760                       # Energy for activate commands per rank (pJ)
system.mem_ctrls2.preEnergy::0              170812125                       # Energy for precharge commands per rank (pJ)
system.mem_ctrls2.preEnergy::1              165911625                       # Energy for precharge commands per rank (pJ)
system.mem_ctrls2.readEnergy::0             851682000                       # Energy for read commands per rank (pJ)
system.mem_ctrls2.readEnergy::1             836331600                       # Energy for read commands per rank (pJ)
system.mem_ctrls2.writeEnergy::0            197594640                       # Energy for write commands per rank (pJ)
system.mem_ctrls2.writeEnergy::1            191380320                       # Energy for write commands per rank (pJ)
system.mem_ctrls2.refreshEnergy::0         3906757920                       # Energy for refresh commands per rank (pJ)
system.mem_ctrls2.refreshEnergy::1         3906757920                       # Energy for refresh commands per rank (pJ)
system.mem_ctrls2.actBackEnergy::0        25326733905                       # Energy for active background per rank (pJ)
system.mem_ctrls2.actBackEnergy::1        24542933175                       # Energy for active background per rank (pJ)
system.mem_ctrls2.preBackEnergy::0        13672106250                       # Energy for precharge background per rank (pJ)
system.mem_ctrls2.preBackEnergy::1        14359650750                       # Energy for precharge background per rank (pJ)
system.mem_ctrls2.totalEnergy::0          44438738880                       # Total energy per rank (pJ)
system.mem_ctrls2.totalEnergy::1          44307036150                       # Total energy per rank (pJ)
system.mem_ctrls2.averagePower::0          742.945901                       # Core power per rank (mW)
system.mem_ctrls2.averagePower::1          740.744039                       # Core power per rank (mW)
system.mem_ctrls3.bytes_read::ruby.dir_cntrl3     13837184                       # Number of bytes read from this memory
system.mem_ctrls3.bytes_read::total          13837184                       # Number of bytes read from this memory
system.mem_ctrls3.bytes_written::ruby.dir_cntrl3      3838464                       # Number of bytes written to this memory
system.mem_ctrls3.bytes_written::total        3838464                       # Number of bytes written to this memory
system.mem_ctrls3.num_reads::ruby.dir_cntrl3       216206                       # Number of read requests responded to by this memory
system.mem_ctrls3.num_reads::total             216206                       # Number of read requests responded to by this memory
system.mem_ctrls3.num_writes::ruby.dir_cntrl3        59976                       # Number of write requests responded to by this memory
system.mem_ctrls3.num_writes::total             59976                       # Number of write requests responded to by this memory
system.mem_ctrls3.bw_read::ruby.dir_cntrl3    231320952                       # Total read bandwidth from this memory (bytes/s)
system.mem_ctrls3.bw_read::total            231320952                       # Total read bandwidth from this memory (bytes/s)
system.mem_ctrls3.bw_write::ruby.dir_cntrl3     64168920                       # Write bandwidth from this memory (bytes/s)
system.mem_ctrls3.bw_write::total            64168920                       # Write bandwidth from this memory (bytes/s)
system.mem_ctrls3.bw_total::ruby.dir_cntrl3    295489871                       # Total bandwidth to/from this memory (bytes/s)
system.mem_ctrls3.bw_total::total           295489871                       # Total bandwidth to/from this memory (bytes/s)
system.mem_ctrls3.readReqs                     216207                       # Number of read requests accepted
system.mem_ctrls3.writeReqs                     59976                       # Number of write requests accepted
system.mem_ctrls3.readBursts                   216207                       # Number of DRAM read bursts, including those serviced by the write queue
system.mem_ctrls3.writeBursts                   59976                       # Number of DRAM write bursts, including those merged in the write queue
system.mem_ctrls3.bytesReadDRAM              13836544                       # Total number of bytes read from DRAM
system.mem_ctrls3.bytesReadWrQ                    704                       # Total number of bytes read from write queue
system.mem_ctrls3.bytesWritten                3838464                       # Total number of bytes written to DRAM
system.mem_ctrls3.bytesReadSys               13837248                       # Total read bytes from the system interface side
system.mem_ctrls3.bytesWrittenSys             3838464                       # Total written bytes from the system interface side
system.mem_ctrls3.servicedByWrQ                    11                       # Number of DRAM read bursts serviced by the write queue
system.mem_ctrls3.mergedWrBursts                    0                       # Number of DRAM write bursts merged with an existing one
system.mem_ctrls3.neitherReadNorWriteReqs            0                       # Number of requests that are neither read nor write
system.mem_ctrls3.perBankRdBursts::0            13270                       # Per bank write bursts
system.mem_ctrls3.perBankRdBursts::1            13823                       # Per bank write bursts
system.mem_ctrls3.perBankRdBursts::2            13450                       # Per bank write bursts
system.mem_ctrls3.perBankRdBursts::3            13898                       # Per bank write bursts
system.mem_ctrls3.perBankRdBursts::4            13490                       # Per bank write bursts
system.mem_ctrls3.perBankRdBursts::5            14084                       # Per bank write bursts
system.mem_ctrls3.perBankRdBursts::6            13513                       # Per bank write bursts
system.mem_ctrls3.perBankRdBursts::7            13492                       # Per bank write bursts
system.mem_ctrls3.perBankRdBursts::8            13398                       # Per bank write bursts
system.mem_ctrls3.perBankRdBursts::9            13703                       # Per bank write bursts
system.mem_ctrls3.perBankRdBursts::10           13441                       # Per bank write bursts
system.mem_ctrls3.perBankRdBursts::11           13659                       # Per bank write bursts
system.mem_ctrls3.perBankRdBursts::12           13200                       # Per bank write bursts
system.mem_ctrls3.perBankRdBursts::13           13061                       # Per bank write bursts
system.mem_ctrls3.perBankRdBursts::14           13313                       # Per bank write bursts
system.mem_ctrls3.perBankRdBursts::15           13401                       # Per bank write bursts
system.mem_ctrls3.perBankWrBursts::0             3686                       # Per bank write bursts
system.mem_ctrls3.perBankWrBursts::1             3769                       # Per bank write bursts
system.mem_ctrls3.perBankWrBursts::2             3752                       # Per bank write bursts
system.mem_ctrls3.perBankWrBursts::3             3975                       # Per bank write bursts
system.mem_ctrls3.perBankWrBursts::4             3768                       # Per bank write bursts
system.mem_ctrls3.perBankWrBursts::5             3909                       # Per bank write bursts
system.mem_ctrls3.perBankWrBursts::6             3808                       # Per bank write bursts
system.mem_ctrls3.perBankWrBursts::7             3773                       # Per bank write bursts
system.mem_ctrls3.perBankWrBursts::8             3662                       # Per bank write bursts
system.mem_ctrls3.perBankWrBursts::9             3908                       # Per bank write bursts
system.mem_ctrls3.perBankWrBursts::10            3673                       # Per bank write bursts
system.mem_ctrls3.perBankWrBursts::11            3622                       # Per bank write bursts
system.mem_ctrls3.perBankWrBursts::12            3573                       # Per bank write bursts
system.mem_ctrls3.perBankWrBursts::13            3595                       # Per bank write bursts
system.mem_ctrls3.perBankWrBursts::14            3795                       # Per bank write bursts
system.mem_ctrls3.perBankWrBursts::15            3708                       # Per bank write bursts
system.mem_ctrls3.numRdRetry                      470                       # Number of times read queue was full causing retry
system.mem_ctrls3.numWrRetry                      257                       # Number of times write queue was full causing retry
system.mem_ctrls3.totGap                  59817372500                       # Total gap between requests
system.mem_ctrls3.readPktSize::0                    0                       # Read request sizes (log2)
system.mem_ctrls3.readPktSize::1                    0                       # Read request sizes (log2)
system.mem_ctrls3.readPktSize::2                    0                       # Read request sizes (log2)
system.mem_ctrls3.readPktSize::3                    0                       # Read request sizes (log2)
system.mem_ctrls3.readPktSize::4                    0                       # Read request sizes (log2)
system.mem_ctrls3.readPktSize::5                    0                       # Read request sizes (log2)
system.mem_ctrls3.readPktSize::6               216207                       # Read request sizes (log2)
[...]
system.ruby.L2Cache_Controller.IS.Mem_Data::total        13549                      
system.ruby.L2Cache_Controller.IM.Mem_Data |        6009      3.16%      3.16% |        5933      3.12%      6.28% |        5941      3.12%      9.40% |        5950      3.13%     12.53% |        5950      3.13%     15.66% |        5947      3.13%     18.78% |        5940      3.12%     21.91% |        5927      3.12%     25.02% |        5949      3.13%     28.15% |        5944      3.13%     31.28% |        5929      3.12%     34.39% |        5949      3.13%     37.52% |        5939      3.12%     40.64% |        5934      3.12%     43.76% |        5932      3.12%     46.88% |        5932      3.12%     50.00% |        5946      3.13%     53.13% |        5946      3.13%     56.25% |        5947      3.13%     59.38% |        5937      3.12%     62.50% |        5943      3.12%     65.63% |        5952      3.13%     68.75% |        5932      3.12%     71.87% |        5940      3.12%     75.00% |        5947      3.13%     78.12% |        5943      3.12%     81.25% |        5953      3.13%     84.38% |        5943      3.12%     87.50% |        5941      3.12%     90.63% |        5946      3.13%     93.75% |        5954      3.13%     96.88% |        5931      3.12%    100.00%
system.ruby.L2Cache_Controller.IM.Mem_Data::total       190206                      
system.ruby.L2Cache_Controller.SS_MB.Exclusive_Unblock |         208     80.93%     80.93% |           6      2.33%     83.27% |           3      1.17%     84.44% |           6      2.33%     86.77% |           0      0.00%     86.77% |           1      0.39%     87.16% |           1      0.39%     87.55% |           0      0.00%     87.55% |           0      0.00%     87.55% |           1      0.39%     87.94% |           0      0.00%     87.94% |           0      0.00%     87.94% |           5      1.95%     89.88% |           0      0.00%     89.88% |           2      0.78%     90.66% |           1      0.39%     91.05% |           0      0.00%     91.05% |           0      0.00%     91.05% |          10      3.89%     94.94% |           2      0.78%     95.72% |           0      0.00%     95.72% |           0      0.00%     95.72% |           0      0.00%     95.72% |           0      0.00%     95.72% |           1      0.39%     96.11% |           0      0.00%     96.11% |           2      0.78%     96.89% |           1      0.39%     97.28% |           4      1.56%     98.83% |           1      0.39%     99.22% |           1      0.39%     99.61% |           1      0.39%    100.00%
system.ruby.L2Cache_Controller.SS_MB.Exclusive_Unblock::total          257                      
system.ruby.L2Cache_Controller.MT_MB.L1_GETS |           0      0.00%      0.00% |           0      0.00%      0.00% |           0      0.00%      0.00% |           1    100.00%    100.00% |           0      0.00%    100.00% |           0      0.00%    100.00% |           0      0.00%    100.00% |           0      0.00%    100.00% |           0      0.00%    100.00% |           0      0.00%    100.00% |           0      0.00%    100.00% |           0      0.00%    100.00% |           0      0.00%    100.00% |           0      0.00%    100.00% |           0      0.00%    100.00% |           0      0.00%    100.00% |           0      0.00%    100.00% |           0      0.00%    100.00% |           0      0.00%    100.00% |           0      0.00%    100.00% |           0      0.00%    100.00% |           0      0.00%    100.00% |           0      0.00%    100.00% |           0      0.00%    100.00% |           0      0.00%    100.00% |           0      0.00%    100.00% |           0      0.00%    100.00% |           0      0.00%    100.00% |           0      0.00%    100.00% |           0      0.00%    100.00% |           0      0.00%    100.00% |           0      0.00%    100.00%
system.ruby.L2Cache_Controller.MT_MB.L1_GETS::total            1                      
system.ruby.L2Cache_Controller.MT_MB.Exclusive_Unblock |       77640      7.09%      7.09% |       33388      3.05%     10.14% |       32686      2.99%     13.12% |       32853      3.00%     16.13% |       33109      3.02%     19.15% |       32033      2.93%     22.07% |       31957      2.92%     24.99% |       31675      2.89%     27.89% |       33956      3.10%     30.99% |       32355      2.95%     33.94% |       34304      3.13%     37.07% |       33125      3.03%     40.10% |       32694      2.99%     43.09% |       31745      2.90%     45.98% |       31778      2.90%     48.89% |       31669      2.89%     51.78% |       34273      3.13%     54.91% |       32115      2.93%     57.84% |       32966      3.01%     60.85% |       32543      2.97%     63.82% |       33034      3.02%     66.84% |       32476      2.97%     69.81% |       33015      3.02%     72.82% |       32009      2.92%     75.75% |       33648      3.07%     78.82% |       32343      2.95%     81.77% |       32844      3.00%     84.77% |       31819      2.91%     87.68% |       33167      3.03%     90.71% |       31907      2.91%     93.62% |       34283      3.13%     96.75% |       35574      3.25%    100.00%
system.ruby.L2Cache_Controller.MT_MB.Exclusive_Unblock::total      1094983                      
system.ruby.L2Cache_Controller.MT_IIB.L1_GETS |           0      0.00%      0.00% |           4     33.33%     33.33% |           1      8.33%     41.67% |           1      8.33%     50.00% |           0      0.00%     50.00% |           0      0.00%     50.00% |           0      0.00%     50.00% |           0      0.00%     50.00% |           0      0.00%     50.00% |           0      0.00%     50.00% |           0      0.00%     50.00% |           0      0.00%     50.00% |           0      0.00%     50.00% |           0      0.00%     50.00% |           0      0.00%     50.00% |           0      0.00%     50.00% |           0      0.00%     50.00% |           3     25.00%     75.00% |           3     25.00%    100.00% |           0      0.00%    100.00% |           0      0.00%    100.00% |           0      0.00%    100.00% |           0      0.00%    100.00% |           0      0.00%    100.00% |           0      0.00%    100.00% |           0      0.00%    100.00% |           0      0.00%    100.00% |           0      0.00%    100.00% |           0      0.00%    100.00% |           0      0.00%    100.00% |           0      0.00%    100.00% |           0      0.00%    100.00%
system.ruby.L2Cache_Controller.MT_IIB.L1_GETS::total           12                      
system.ruby.L2Cache_Controller.MT_IIB.WB_Data |         177      7.65%      7.65% |          71      3.07%     10.71% |          69      2.98%     13.69% |          63      2.72%     16.41% |          69      2.98%     19.40% |          69      2.98%     22.38% |          69      2.98%     25.36% |          69      2.98%     28.34% |          69      2.98%     31.32% |          69      2.98%     34.30% |          67      2.89%     37.19% |          67      2.89%     40.09% |          73      3.15%     43.24% |          69      2.98%     46.22% |          69      2.98%     49.20% |          69      2.98%     52.18% |          69      2.98%     55.16% |          69      2.98%     58.14% |          70      3.02%     61.17% |          68      2.94%     64.10% |          69      2.98%     67.08% |          69      2.98%     70.06% |          71      3.07%     73.13% |          69      2.98%     76.11% |          69      2.98%     79.09% |          69      2.98%     82.07% |          69      2.98%     85.05% |          69      2.98%     88.03% |          70      3.02%     91.06% |          69      2.98%     94.04% |          69      2.98%     97.02% |          69      2.98%    100.00%
system.ruby.L2Cache_Controller.MT_IIB.WB_Data::total         2315                      
system.ruby.L2Cache_Controller.MT_IIB.WB_Data_clean |         584     96.69%     96.69% |           3      0.50%     97.19% |           2      0.33%     97.52% |           2      0.33%     97.85% |           0      0.00%     97.85% |           0      0.00%     97.85% |           0      0.00%     97.85% |           0      0.00%     97.85% |           0      0.00%     97.85% |           0      0.00%     97.85% |           0      0.00%     97.85% |           0      0.00%     97.85% |           0      0.00%     97.85% |           0      0.00%     97.85% |           1      0.17%     98.01% |           0      0.00%     98.01% |           1      0.17%     98.18% |           4      0.66%     98.84% |           4      0.66%     99.50% |           3      0.50%    100.00% |           0      0.00%    100.00% |           0      0.00%    100.00% |           0      0.00%    100.00% |           0      0.00%    100.00% |           0      0.00%    100.00% |           0      0.00%    100.00% |           0      0.00%    100.00% |           0      0.00%    100.00% |           0      0.00%    100.00% |           0      0.00%    100.00% |           0      0.00%    100.00% |           0      0.00%    100.00%
system.ruby.L2Cache_Controller.MT_IIB.WB_Data_clean::total          604                      
system.ruby.L2Cache_Controller.MT_IIB.Unblock |           0      0.00%      0.00% |           0      0.00%      0.00% |           0      0.00%      0.00% |           6     42.86%     42.86% |           0      0.00%     42.86% |           0      0.00%     42.86% |           0      0.00%     42.86% |           0      0.00%     42.86% |           0      0.00%     42.86% |           0      0.00%     42.86% |           2     14.29%     57.14% |           2     14.29%     71.43% |           0      0.00%     71.43% |           0      0.00%     71.43% |           0      0.00%     71.43% |           0      0.00%     71.43% |           0      0.00%     71.43% |           0      0.00%     71.43% |           0      0.00%     71.43% |           2     14.29%     85.71% |           0      0.00%     85.71% |           0      0.00%     85.71% |           0      0.00%     85.71% |           0      0.00%     85.71% |           0      0.00%     85.71% |           1      7.14%     92.86% |           0      0.00%     92.86% |           0      0.00%     92.86% |           1      7.14%    100.00% |           0      0.00%    100.00% |           0      0.00%    100.00% |           0      0.00%    100.00%
system.ruby.L2Cache_Controller.MT_IIB.Unblock::total           14                      
system.ruby.L2Cache_Controller.MT_IB.WB_Data |           0      0.00%      0.00% |           0      0.00%      0.00% |           0      0.00%      0.00% |           6     42.86%     42.86% |           0      0.00%     42.86% |           0      0.00%     42.86% |           0      0.00%     42.86% |           0      0.00%     42.86% |           0      0.00%     42.86% |           0      0.00%     42.86% |           2     14.29%     57.14% |           2     14.29%     71.43% |           0      0.00%     71.43% |           0      0.00%     71.43% |           0      0.00%     71.43% |           0      0.00%     71.43% |           0      0.00%     71.43% |           0      0.00%     71.43% |           0      0.00%     71.43% |           2     14.29%     85.71% |           0      0.00%     85.71% |           0      0.00%     85.71% |           0      0.00%     85.71% |           0      0.00%     85.71% |           0      0.00%     85.71% |           1      7.14%     92.86% |           0      0.00%     92.86% |           0      0.00%     92.86% |           1      7.14%    100.00% |           0      0.00%    100.00% |           0      0.00%    100.00% |           0      0.00%    100.00%
system.ruby.L2Cache_Controller.MT_IB.WB_Data::total           14                      
system.ruby.L2Cache_Controller.MT_SB.L1_GETS |           0      0.00%      0.00% |           1     33.33%     33.33% |           1     33.33%     66.67% |           1     33.33%    100.00% |           0      0.00%    100.00% |           0      0.00%    100.00% |           0      0.00%    100.00% |           0      0.00%    100.00% |           0      0.00%    100.00% |           0      0.00%    100.00% |           0      0.00%    100.00% |           0      0.00%    100.00% |           0      0.00%    100.00% |           0      0.00%    100.00% |           0      0.00%    100.00% |           0      0.00%    100.00% |           0      0.00%    100.00% |           0      0.00%    100.00% |           0      0.00%    100.00% |           0      0.00%    100.00% |           0      0.00%    100.00% |           0      0.00%    100.00% |           0      0.00%    100.00% |           0      0.00%    100.00% |           0      0.00%    100.00% |           0      0.00%    100.00% |           0      0.00%    100.00% |           0      0.00%    100.00% |           0      0.00%    100.00% |           0      0.00%    100.00% |           0      0.00%    100.00% |           0      0.00%    100.00%
system.ruby.L2Cache_Controller.MT_SB.L1_GETS::total            3                      
system.ruby.L2Cache_Controller.MT_SB.Unblock |         761     26.07%     26.07% |          74      2.54%     28.61% |          71      2.43%     31.04% |          65      2.23%     33.26% |          69      2.36%     35.63% |          69      2.36%     37.99% |          69      2.36%     40.36% |          69      2.36%     42.72% |          69      2.36%     45.08% |          69      2.36%     47.45% |          67      2.30%     49.74% |          67      2.30%     52.04% |          73      2.50%     54.54% |          69      2.36%     56.90% |          70      2.40%     59.30% |          69      2.36%     61.66% |          70      2.40%     64.06% |          73      2.50%     66.56% |          74      2.54%     69.10% |          71      2.43%     71.53% |          69      2.36%     73.90% |          69      2.36%     76.26% |          71      2.43%     78.69% |          69      2.36%     81.06% |          69      2.36%     83.42% |          69      2.36%     85.78% |          69      2.36%     88.15% |          69      2.36%     90.51% |          70      2.40%     92.91% |          69      2.36%     95.27% |          69      2.36%     97.64% |          69      2.36%    100.00%
system.ruby.L2Cache_Controller.MT_SB.Unblock::total         2919                      
system.ruby.SimicsNetworkPortInterface_Controller.MessageSend |       76162      4.27%      4.27% |      891196     50.00%     54.27% |      107836      6.05%     60.32% |      103349      5.80%     66.12% |      101259      5.68%     71.80% |      102758      5.77%     77.57% |      101259      5.68%     83.25% |      103425      5.80%     89.05% |       97396      5.46%     94.52% |       97752      5.48%    100.00% |           0      0.00%    100.00% |           0      0.00%    100.00% |           0      0.00%    100.00% |           0      0.00%    100.00% |           0      0.00%    100.00% |           0      0.00%    100.00% |           0      0.00%    100.00% |           0      0.00%    100.00% |           0      0.00%    100.00% |           0      0.00%    100.00% |           0      0.00%    100.00% |           0      0.00%    100.00% |           0      0.00%    100.00% |           0      0.00%    100.00% |           0      0.00%    100.00% |           0      0.00%    100.00% |           0      0.00%    100.00% |           0      0.00%    100.00% |           0      0.00%    100.00% |           0      0.00%    100.00% |           0      0.00%    100.00% |           0      0.00%    100.00%
system.ruby.SimicsNetworkPortInterface_Controller.MessageSend::total      1782392                      
system.ruby.SimicsNetworkPortInterface_Controller.MessageRecv |       76162      4.27%      4.27% |      891196     50.00%     54.27% |      107836      6.05%     60.32% |      103349      5.80%     66.12% |      101259      5.68%     71.80% |      102758      5.77%     77.57% |      101259      5.68%     83.25% |      103425      5.80%     89.05% |       97396      5.46%     94.52% |       97752      5.48%    100.00% |           0      0.00%    100.00% |           0      0.00%    100.00% |           0      0.00%    100.00% |           0      0.00%    100.00% |           0      0.00%    100.00% |           0      0.00%    100.00% |           0      0.00%    100.00% |           0      0.00%    100.00% |           0      0.00%    100.00% |           0      0.00%    100.00% |           0      0.00%    100.00% |           0      0.00%    100.00% |           0      0.00%    100.00% |           0      0.00%    100.00% |           0      0.00%    100.00% |           0      0.00%    100.00% |           0      0.00%    100.00% |           0      0.00%    100.00% |           0      0.00%    100.00% |           0      0.00%    100.00% |           0      0.00%    100.00% |           0      0.00%    100.00%
system.ruby.SimicsNetworkPortInterface_Controller.MessageRecv::total      1782392                      
system.ruby.SimicsNetworkPortInterface_Controller.A.MessageSend |       76162      4.27%      4.27% |      891196     50.00%     54.27% |      107836      6.05%     60.32% |      103349      5.80%     66.12% |      101259      5.68%     71.80% |      102758      5.77%     77.57% |      101259      5.68%     83.25% |      103425      5.80%     89.05% |       97396      5.46%     94.52% |       97752      5.48%    100.00% |           0      0.00%    100.00% |           0      0.00%    100.00% |           0      0.00%    100.00% |           0      0.00%    100.00% |           0      0.00%    100.00% |           0      0.00%    100.00% |           0      0.00%    100.00% |           0      0.00%    100.00% |           0      0.00%    100.00% |           0      0.00%    100.00% |           0      0.00%    100.00% |           0      0.00%    100.00% |           0      0.00%    100.00% |           0      0.00%    100.00% |           0      0.00%    100.00% |           0      0.00%    100.00% |           0      0.00%    100.00% |           0      0.00%    100.00% |           0      0.00%    100.00% |           0      0.00%    100.00% |           0      0.00%    100.00% |           0      0.00%    100.00%
system.ruby.SimicsNetworkPortInterface_Controller.A.MessageSend::total      1782392                      
system.ruby.SimicsNetworkPortInterface_Controller.A.MessageRecv |       76162      4.27%      4.27% |      891196     50.00%     54.27% |      107836      6.05%     60.32% |      103349      5.80%     66.12% |      101259      5.68%     71.80% |      102758      5.77%     77.57% |      101259      5.68%     83.25% |      103425      5.80%     89.05% |       97396      5.46%     94.52% |       97752      5.48%    100.00% |           0      0.00%    100.00% |           0      0.00%    100.00% |           0      0.00%    100.00% |           0      0.00%    100.00% |           0      0.00%    100.00% |           0      0.00%    100.00% |           0      0.00%    100.00% |           0      0.00%    100.00% |           0      0.00%    100.00% |           0      0.00%    100.00% |           0      0.00%    100.00% |           0      0.00%    100.00% |           0      0.00%    100.00% |           0      0.00%    100.00% |           0      0.00%    100.00% |           0      0.00%    100.00% |           0      0.00%    100.00% |           0      0.00%    100.00% |           0      0.00%    100.00% |           0      0.00%    100.00% |           0      0.00%    100.00% |           0      0.00%    100.00%
system.ruby.SimicsNetworkPortInterface_Controller.A.MessageRecv::total      1782392                      
system.switch_cpus.kern.inst.arm                    0                       # number of arm instructions executed
system.switch_cpus.kern.inst.quiesce                0                       # number of quiesce instructions executed

---------- End Simulation Statistics   ----------
