
---------- Begin Simulation Statistics ----------
sim_seconds                                  0.037978                       # Number of seconds simulated
sim_ticks                                 37977566500                       # Number of ticks simulated
final_tick                               5214145645000                       # Number of ticks from beginning of simulation (restored from checkpoints and never reset)
sim_freq                                 1000000000000                       # Frequency of simulated ticks
host_inst_rate                                  15444                       # Simulator instruction rate (inst/s)
host_op_rate                                    27786                       # Simulator op (including micro ops) rate (op/s)
host_tick_rate                               24206617                       # Simulator tick rate (ticks/s)
host_mem_usage                                4760036                       # Number of bytes of host memory used
host_seconds                                  1568.89                       # Real time elapsed on the host
sim_insts                                    24229560                       # Number of instructions simulated
sim_ops                                      43593700                       # Number of ops (including micro ops) simulated
system.voltage_domain.voltage                       1                       # Voltage in Volts
system.clk_domain.clock                           500                       # Clock period in ticks
system.mem_ctrls0.bytes_read::ruby.dir_cntrl0      4968640                       # Number of bytes read from this memory
system.mem_ctrls0.bytes_read::total           4968640                       # Number of bytes read from this memory
system.mem_ctrls0.bytes_written::ruby.dir_cntrl0      3964800                       # Number of bytes written to this memory
system.mem_ctrls0.bytes_written::total        3964800                       # Number of bytes written to this memory
system.mem_ctrls0.num_reads::ruby.dir_cntrl0        77635                       # Number of read requests responded to by this memory
system.mem_ctrls0.num_reads::total              77635                       # Number of read requests responded to by this memory
system.mem_ctrls0.num_writes::ruby.dir_cntrl0        61950                       # Number of write requests responded to by this memory
system.mem_ctrls0.num_writes::total             61950                       # Number of write requests responded to by this memory
system.mem_ctrls0.bw_read::ruby.dir_cntrl0    130830921                       # Total read bandwidth from this memory (bytes/s)
system.mem_ctrls0.bw_read::total            130830921                       # Total read bandwidth from this memory (bytes/s)
system.mem_ctrls0.bw_write::ruby.dir_cntrl0    104398474                       # Write bandwidth from this memory (bytes/s)
system.mem_ctrls0.bw_write::total           104398474                       # Write bandwidth from this memory (bytes/s)
system.mem_ctrls0.bw_total::ruby.dir_cntrl0    235229395                       # Total bandwidth to/from this memory (bytes/s)
system.mem_ctrls0.bw_total::total           235229395                       # Total bandwidth to/from this memory (bytes/s)
system.mem_ctrls0.readReqs                      77635                       # Number of read requests accepted
system.mem_ctrls0.writeReqs                     61950                       # Number of write requests accepted
system.mem_ctrls0.readBursts                    77635                       # Number of DRAM read bursts, including those serviced by the write queue
system.mem_ctrls0.writeBursts                   61950                       # Number of DRAM write bursts, including those merged in the write queue
system.mem_ctrls0.bytesReadDRAM               4967296                       # Total number of bytes read from DRAM
system.mem_ctrls0.bytesReadWrQ                   1344                       # Total number of bytes read from write queue
system.mem_ctrls0.bytesWritten                3964672                       # Total number of bytes written to DRAM
system.mem_ctrls0.bytesReadSys                4968640                       # Total read bytes from the system interface side
system.mem_ctrls0.bytesWrittenSys             3964800                       # Total written bytes from the system interface side
system.mem_ctrls0.servicedByWrQ                    21                       # Number of DRAM read bursts serviced by the write queue
system.mem_ctrls0.mergedWrBursts                    0                       # Number of DRAM write bursts merged with an existing one
system.mem_ctrls0.neitherReadNorWriteReqs            0                       # Number of requests that are neither read nor write
system.mem_ctrls0.perBankRdBursts::0             4392                       # Per bank write bursts
system.mem_ctrls0.perBankRdBursts::1             4839                       # Per bank write bursts
system.mem_ctrls0.perBankRdBursts::2             4555                       # Per bank write bursts
system.mem_ctrls0.perBankRdBursts::3             4966                       # Per bank write bursts
system.mem_ctrls0.perBankRdBursts::4             4848                       # Per bank write bursts
system.mem_ctrls0.perBankRdBursts::5             5351                       # Per bank write bursts
system.mem_ctrls0.perBankRdBursts::6             4951                       # Per bank write bursts
system.mem_ctrls0.perBankRdBursts::7             5221                       # Per bank write bursts
system.mem_ctrls0.perBankRdBursts::8             5044                       # Per bank write bursts
system.mem_ctrls0.perBankRdBursts::9             5202                       # Per bank write bursts
system.mem_ctrls0.perBankRdBursts::10            4622                       # Per bank write bursts
system.mem_ctrls0.perBankRdBursts::11            4794                       # Per bank write bursts
system.mem_ctrls0.perBankRdBursts::12            4587                       # Per bank write bursts
system.mem_ctrls0.perBankRdBursts::13            4630                       # Per bank write bursts
system.mem_ctrls0.perBankRdBursts::14            4797                       # Per bank write bursts
system.mem_ctrls0.perBankRdBursts::15            4815                       # Per bank write bursts
system.mem_ctrls0.perBankWrBursts::0             3620                       # Per bank write bursts
system.mem_ctrls0.perBankWrBursts::1             3566                       # Per bank write bursts
system.mem_ctrls0.perBankWrBursts::2             3652                       # Per bank write bursts
system.mem_ctrls0.perBankWrBursts::3             3794                       # Per bank write bursts
system.mem_ctrls0.perBankWrBursts::4             3857                       # Per bank write bursts
system.mem_ctrls0.perBankWrBursts::5             4191                       # Per bank write bursts
system.mem_ctrls0.perBankWrBursts::6             3921                       # Per bank write bursts
system.mem_ctrls0.perBankWrBursts::7             4192                       # Per bank write bursts
system.mem_ctrls0.perBankWrBursts::8             4055                       # Per bank write bursts
system.mem_ctrls0.perBankWrBursts::9             4133                       # Per bank write bursts
system.mem_ctrls0.perBankWrBursts::10            3702                       # Per bank write bursts
system.mem_ctrls0.perBankWrBursts::11            3637                       # Per bank write bursts
system.mem_ctrls0.perBankWrBursts::12            3792                       # Per bank write bursts
system.mem_ctrls0.perBankWrBursts::13            3901                       # Per bank write bursts
system.mem_ctrls0.perBankWrBursts::14            4028                       # Per bank write bursts
system.mem_ctrls0.perBankWrBursts::15            3907                       # Per bank write bursts
system.mem_ctrls0.numRdRetry                        1                       # Number of times read queue was full causing retry
system.mem_ctrls0.numWrRetry                      140                       # Number of times write queue was full causing retry
system.mem_ctrls0.totGap                  37977076500                       # Total gap between requests
system.mem_ctrls0.readPktSize::0                    0                       # Read request sizes (log2)
system.mem_ctrls0.readPktSize::1                    0                       # Read request sizes (log2)
system.mem_ctrls0.readPktSize::2                    0                       # Read request sizes (log2)
system.mem_ctrls0.readPktSize::3                    0                       # Read request sizes (log2)
system.mem_ctrls0.readPktSize::4                    0                       # Read request sizes (log2)
system.mem_ctrls0.readPktSize::5                    0                       # Read request sizes (log2)
system.mem_ctrls0.readPktSize::6                77635                       # Read request sizes (log2)
system.mem_ctrls0.writePktSize::0                   0                       # Write request sizes (log2)
system.mem_ctrls0.writePktSize::1                   0                       # Write request sizes (log2)
system.mem_ctrls0.writePktSize::2                   0                       # Write request sizes (log2)
system.mem_ctrls0.writePktSize::3                   0                       # Write request sizes (log2)
system.mem_ctrls0.writePktSize::4                   0                       # Write request sizes (log2)
system.mem_ctrls0.writePktSize::5                   0                       # Write request sizes (log2)
system.mem_ctrls0.writePktSize::6               61950                       # Write request sizes (log2)
system.mem_ctrls0.rdQLenPdf::0                  59722                       # What read queue length does an incoming req see
system.mem_ctrls0.rdQLenPdf::1                  10734                       # What read queue length does an incoming req see
system.mem_ctrls0.rdQLenPdf::2                   3528                       # What read queue length does an incoming req see
system.mem_ctrls0.rdQLenPdf::3                   1463                       # What read queue length does an incoming req see
system.mem_ctrls0.rdQLenPdf::4                    765                       # What read queue length does an incoming req see
system.mem_ctrls0.rdQLenPdf::5                    429                       # What read queue length does an incoming req see
system.mem_ctrls0.rdQLenPdf::6                    266                       # What read queue length does an incoming req see
system.mem_ctrls0.rdQLenPdf::7                    168                       # What read queue length does an incoming req see
system.mem_ctrls0.rdQLenPdf::8                    110                       # What read queue length does an incoming req see
system.mem_ctrls0.rdQLenPdf::9                     66                       # What read queue length does an incoming req see
system.mem_ctrls0.rdQLenPdf::10                    54                       # What read queue length does an incoming req see
system.mem_ctrls0.rdQLenPdf::11                    51                       # What read queue length does an incoming req see
system.mem_ctrls0.rdQLenPdf::12                    38                       # What read queue length does an incoming req see
system.mem_ctrls0.rdQLenPdf::13                    37                       # What read queue length does an incoming req see
system.mem_ctrls0.rdQLenPdf::14                    31                       # What read queue length does an incoming req see
system.mem_ctrls0.rdQLenPdf::15                    26                       # What read queue length does an incoming req see
system.mem_ctrls0.rdQLenPdf::16                    23                       # What read queue length does an incoming req see
system.mem_ctrls0.rdQLenPdf::17                    23                       # What read queue length does an incoming req see
system.mem_ctrls0.rdQLenPdf::18                    20                       # What read queue length does an incoming req see
system.mem_ctrls0.rdQLenPdf::19                    11                       # What read queue length does an incoming req see
system.mem_ctrls0.rdQLenPdf::20                     9                       # What read queue length does an incoming req see
system.mem_ctrls0.rdQLenPdf::21                     9                       # What read queue length does an incoming req see
system.mem_ctrls0.rdQLenPdf::22                     8                       # What read queue length does an incoming req see
system.mem_ctrls0.rdQLenPdf::23                     5                       # What read queue length does an incoming req see
system.mem_ctrls0.rdQLenPdf::24                     7                       # What read queue length does an incoming req see
system.mem_ctrls0.rdQLenPdf::25                     4                       # What read queue length does an incoming req see
system.mem_ctrls0.rdQLenPdf::26                     1                       # What read queue length does an incoming req see
system.mem_ctrls0.rdQLenPdf::27                     1                       # What read queue length does an incoming req see
system.mem_ctrls0.rdQLenPdf::28                     1                       # What read queue length does an incoming req see
system.mem_ctrls0.rdQLenPdf::29                     1                       # What read queue length does an incoming req see
system.mem_ctrls0.rdQLenPdf::30                     1                       # What read queue length does an incoming req see
system.mem_ctrls0.rdQLenPdf::31                     2                       # What read queue length does an incoming req see
system.mem_ctrls0.wrQLenPdf::0                  11522                       # What write queue length does an incoming req see
system.mem_ctrls0.wrQLenPdf::1                  12621                       # What write queue length does an incoming req see
system.mem_ctrls0.wrQLenPdf::2                  12652                       # What write queue length does an incoming req see
system.mem_ctrls0.wrQLenPdf::3                  12345                       # What write queue length does an incoming req see
system.mem_ctrls0.wrQLenPdf::4                  11955                       # What write queue length does an incoming req see
system.mem_ctrls0.wrQLenPdf::5                    425                       # What write queue length does an incoming req see
system.mem_ctrls0.wrQLenPdf::6                    185                       # What write queue length does an incoming req see
system.mem_ctrls0.wrQLenPdf::7                    245                       # What write queue length does an incoming req see
system.mem_ctrls0.bytesPerActivate::samples        52754                       # Bytes accessed per row activation
system.mem_ctrls0.bytesPerActivate::mean   169.288092                       # Bytes accessed per row activation
system.mem_ctrls0.bytesPerActivate::gmean   119.926618                       # Bytes accessed per row activation
system.mem_ctrls0.bytesPerActivate::stdev   176.532748                       # Bytes accessed per row activation
system.mem_ctrls0.bytesPerActivate::0-127        27221     51.60%     51.60% # Bytes accessed per row activation
system.mem_ctrls0.bytesPerActivate::128-255        12931     24.51%     76.11% # Bytes accessed per row activation
system.mem_ctrls0.bytesPerActivate::256-383         7590     14.39%     90.50% # Bytes accessed per row activation
system.mem_ctrls0.bytesPerActivate::384-511         1939      3.68%     94.17% # Bytes accessed per row activation
system.mem_ctrls0.bytesPerActivate::512-639         1134      2.15%     96.32% # Bytes accessed per row activation
system.mem_ctrls0.bytesPerActivate::640-767          589      1.12%     97.44% # Bytes accessed per row activation
system.mem_ctrls0.bytesPerActivate::768-895          424      0.80%     98.24% # Bytes accessed per row activation
system.mem_ctrls0.bytesPerActivate::896-1023          346      0.66%     98.90% # Bytes accessed per row activation
system.mem_ctrls0.bytesPerActivate::1024-1151          580      1.10%    100.00% # Bytes accessed per row activation
system.mem_ctrls0.bytesPerActivate::total        52754                       # Bytes accessed per row activation
system.mem_ctrls0.rdPerTurnAround::samples        11539                       # Reads before turning the bus around for writes
system.mem_ctrls0.rdPerTurnAround::mean      6.725626                       # Reads before turning the bus around for writes
system.mem_ctrls0.rdPerTurnAround::stdev    37.575829                       # Reads before turning the bus around for writes
system.mem_ctrls0.rdPerTurnAround::0-127        11533     99.95%     99.95% # Reads before turning the bus around for writes
system.mem_ctrls0.rdPerTurnAround::128-255            5      0.04%     99.99% # Reads before turning the bus around for writes
system.mem_ctrls0.rdPerTurnAround::3968-4095            1      0.01%    100.00% # Reads before turning the bus around for writes
system.mem_ctrls0.rdPerTurnAround::total        11539                       # Reads before turning the bus around for writes
system.mem_ctrls0.wrPerTurnAround::samples        11539                       # Writes before turning the bus around for reads
system.mem_ctrls0.wrPerTurnAround::mean      5.368576                       # Writes before turning the bus around for reads
system.mem_ctrls0.wrPerTurnAround::gmean     5.291567                       # Writes before turning the bus around for reads
system.mem_ctrls0.wrPerTurnAround::stdev     1.130635                       # Writes before turning the bus around for reads
system.mem_ctrls0.wrPerTurnAround::4-7          11026     95.55%     95.55% # Writes before turning the bus around for reads
system.mem_ctrls0.wrPerTurnAround::8-11           424      3.67%     99.23% # Writes before turning the bus around for reads
system.mem_ctrls0.wrPerTurnAround::12-15           67      0.58%     99.81% # Writes before turning the bus around for reads
system.mem_ctrls0.wrPerTurnAround::16-19           22      0.19%    100.00% # Writes before turning the bus around for reads
system.mem_ctrls0.wrPerTurnAround::total        11539                       # Writes before turning the bus around for reads
system.mem_ctrls0.totQLat                  1895383636                       # Total ticks spent queuing
system.mem_ctrls0.totMemAccLat             3350646136                       # Total ticks spent from burst creation until serviced by the DRAM
system.mem_ctrls0.totBusLat                 388070000                       # Total ticks spent in databus transfers
system.mem_ctrls0.avgQLat                    24420.64                       # Average queueing delay per DRAM burst
system.mem_ctrls0.avgBusLat                   5000.00                       # Average bus latency per DRAM burst
system.mem_ctrls0.avgMemAccLat               43170.64                       # Average memory access latency per DRAM burst
system.mem_ctrls0.avgRdBW                      130.80                       # Average DRAM read bandwidth in MiByte/s
system.mem_ctrls0.avgWrBW                      104.40                       # Average achieved write bandwidth in MiByte/s
system.mem_ctrls0.avgRdBWSys                   130.83                       # Average system read bandwidth in MiByte/s
system.mem_ctrls0.avgWrBWSys                   104.40                       # Average system write bandwidth in MiByte/s
system.mem_ctrls0.peakBW                     12800.00                       # Theoretical peak bandwidth in MiByte/s
system.mem_ctrls0.busUtil                        1.84                       # Data bus utilization in percentage
system.mem_ctrls0.busUtilRead                    1.02                       # Data bus utilization in percentage for reads
system.mem_ctrls0.busUtilWrite                   0.82                       # Data bus utilization in percentage for writes
system.mem_ctrls0.avgRdQLen                      1.10                       # Average read queue length when enqueuing
system.mem_ctrls0.avgWrQLen                      2.85                       # Average write queue length when enqueuing
system.mem_ctrls0.readRowHits                   53452                       # Number of row buffer hits during reads
system.mem_ctrls0.writeRowHits                  33345                       # Number of row buffer hits during writes
system.mem_ctrls0.readRowHitRate                68.87                       # Row buffer hit rate for reads
system.mem_ctrls0.writeRowHitRate               53.83                       # Row buffer hit rate for writes
system.mem_ctrls0.avgGap                    272071.33                       # Average gap between requests
system.mem_ctrls0.pageHitRate                   62.19                       # Row buffer hit rate, read and write combined
system.mem_ctrls0.memoryStateTime::IDLE    8557477750                       # Time in different power states
system.mem_ctrls0.memoryStateTime::REF     1268020000                       # Time in different power states
system.mem_ctrls0.memoryStateTime::PRE_PDN            0                       # Time in different power states
system.mem_ctrls0.memoryStateTime::ACT    28148639750                       # Time in different power states
system.mem_ctrls0.memoryStateTime::ACT_PDN            0                       # Time in different power states
system.mem_ctrls0.actEnergy::0              199349640                       # Energy for activate commands per rank (pJ)
system.mem_ctrls0.actEnergy::1              199440360                       # Energy for activate commands per rank (pJ)
system.mem_ctrls0.preEnergy::0              108772125                       # Energy for precharge commands per rank (pJ)
system.mem_ctrls0.preEnergy::1              108821625                       # Energy for precharge commands per rank (pJ)
system.mem_ctrls0.readEnergy::0             305097000                       # Energy for read commands per rank (pJ)
system.mem_ctrls0.readEnergy::1             300175200                       # Energy for read commands per rank (pJ)
system.mem_ctrls0.writeEnergy::0            199506240                       # Energy for write commands per rank (pJ)
system.mem_ctrls0.writeEnergy::1            201852000                       # Energy for write commands per rank (pJ)
system.mem_ctrls0.refreshEnergy::0         2480247120                       # Energy for refresh commands per rank (pJ)
system.mem_ctrls0.refreshEnergy::1         2480247120                       # Energy for refresh commands per rank (pJ)
system.mem_ctrls0.actBackEnergy::0        15256600335                       # Energy for active background per rank (pJ)
system.mem_ctrls0.actBackEnergy::1        14805269775                       # Energy for active background per rank (pJ)
system.mem_ctrls0.preBackEnergy::0         9401298000                       # Energy for precharge background per rank (pJ)
system.mem_ctrls0.preBackEnergy::1         9797202000                       # Energy for precharge background per rank (pJ)
system.mem_ctrls0.totalEnergy::0          27950870460                       # Total energy per rank (pJ)
system.mem_ctrls0.totalEnergy::1          27893008080                       # Total energy per rank (pJ)
system.mem_ctrls0.averagePower::0          736.056690                       # Core power per rank (mW)
system.mem_ctrls0.averagePower::1          734.532945                       # Core power per rank (mW)
system.mem_ctrls1.bytes_read::ruby.dir_cntrl1      4882624                       # Number of bytes read from this memory
system.mem_ctrls1.bytes_read::total           4882624                       # Number of bytes read from this memory
system.mem_ctrls1.bytes_written::ruby.dir_cntrl1      3886208                       # Number of bytes written to this memory
system.mem_ctrls1.bytes_written::total        3886208                       # Number of bytes written to this memory
system.mem_ctrls1.num_reads::ruby.dir_cntrl1        76291                       # Number of read requests responded to by this memory
system.mem_ctrls1.num_reads::total              76291                       # Number of read requests responded to by this memory
system.mem_ctrls1.num_writes::ruby.dir_cntrl1        60722                       # Number of write requests responded to by this memory
system.mem_ctrls1.num_writes::total             60722                       # Number of write requests responded to by this memory
system.mem_ctrls1.bw_read::ruby.dir_cntrl1    128566005                       # Total read bandwidth from this memory (bytes/s)
system.mem_ctrls1.bw_read::total            128566005                       # Total read bandwidth from this memory (bytes/s)
system.mem_ctrls1.bw_write::ruby.dir_cntrl1    102329042                       # Write bandwidth from this memory (bytes/s)
system.mem_ctrls1.bw_write::total           102329042                       # Write bandwidth from this memory (bytes/s)
system.mem_ctrls1.bw_total::ruby.dir_cntrl1    230895047                       # Total bandwidth to/from this memory (bytes/s)
system.mem_ctrls1.bw_total::total           230895047                       # Total bandwidth to/from this memory (bytes/s)
system.mem_ctrls1.readReqs                      76291                       # Number of read requests accepted
system.mem_ctrls1.writeReqs                     60722                       # Number of write requests accepted
system.mem_ctrls1.readBursts                    76291                       # Number of DRAM read bursts, including those serviced by the write queue
system.mem_ctrls1.writeBursts                   60722                       # Number of DRAM write bursts, including those merged in the write queue
system.mem_ctrls1.bytesReadDRAM               4881920                       # Total number of bytes read from DRAM
system.mem_ctrls1.bytesReadWrQ                    704                       # Total number of bytes read from write queue
system.mem_ctrls1.bytesWritten                3886016                       # Total number of bytes written to DRAM
system.mem_ctrls1.bytesReadSys                4882624                       # Total read bytes from the system interface side
system.mem_ctrls1.bytesWrittenSys             3886208                       # Total written bytes from the system interface side
system.mem_ctrls1.servicedByWrQ                    11                       # Number of DRAM read bursts serviced by the write queue
system.mem_ctrls1.mergedWrBursts                    0                       # Number of DRAM write bursts merged with an existing one
system.mem_ctrls1.neitherReadNorWriteReqs            0                       # Number of requests that are neither read nor write
system.mem_ctrls1.perBankRdBursts::0             4327                       # Per bank write bursts
system.mem_ctrls1.perBankRdBursts::1             4747                       # Per bank write bursts
system.mem_ctrls1.perBankRdBursts::2             4466                       # Per bank write bursts
system.mem_ctrls1.perBankRdBursts::3             4894                       # Per bank write bursts
system.mem_ctrls1.perBankRdBursts::4             4783                       # Per bank write bursts
system.mem_ctrls1.perBankRdBursts::5             5298                       # Per bank write bursts
system.mem_ctrls1.perBankRdBursts::6             4887                       # Per bank write bursts
system.mem_ctrls1.perBankRdBursts::7             5166                       # Per bank write bursts
system.mem_ctrls1.perBankRdBursts::8             4940                       # Per bank write bursts
system.mem_ctrls1.perBankRdBursts::9             5090                       # Per bank write bursts
system.mem_ctrls1.perBankRdBursts::10            4518                       # Per bank write bursts
system.mem_ctrls1.perBankRdBursts::11            4727                       # Per bank write bursts
system.mem_ctrls1.perBankRdBursts::12            4493                       # Per bank write bursts
system.mem_ctrls1.perBankRdBursts::13            4570                       # Per bank write bursts
system.mem_ctrls1.perBankRdBursts::14            4636                       # Per bank write bursts
system.mem_ctrls1.perBankRdBursts::15            4738                       # Per bank write bursts
system.mem_ctrls1.perBankWrBursts::0             3557                       # Per bank write bursts
system.mem_ctrls1.perBankWrBursts::1             3506                       # Per bank write bursts
system.mem_ctrls1.perBankWrBursts::2             3578                       # Per bank write bursts
system.mem_ctrls1.perBankWrBursts::3             3743                       # Per bank write bursts
system.mem_ctrls1.perBankWrBursts::4             3792                       # Per bank write bursts
system.mem_ctrls1.perBankWrBursts::5             4122                       # Per bank write bursts
system.mem_ctrls1.perBankWrBursts::6             3843                       # Per bank write bursts
system.mem_ctrls1.perBankWrBursts::7             4108                       # Per bank write bursts
system.mem_ctrls1.perBankWrBursts::8             3971                       # Per bank write bursts
system.mem_ctrls1.perBankWrBursts::9             4035                       # Per bank write bursts
system.mem_ctrls1.perBankWrBursts::10            3616                       # Per bank write bursts
system.mem_ctrls1.perBankWrBursts::11            3570                       # Per bank write bursts
system.mem_ctrls1.perBankWrBursts::12            3718                       # Per bank write bursts
system.mem_ctrls1.perBankWrBursts::13            3826                       # Per bank write bursts
system.mem_ctrls1.perBankWrBursts::14            3898                       # Per bank write bursts
system.mem_ctrls1.perBankWrBursts::15            3836                       # Per bank write bursts
system.mem_ctrls1.numRdRetry                        3                       # Number of times read queue was full causing retry
system.mem_ctrls1.numWrRetry                      157                       # Number of times write queue was full causing retry
system.mem_ctrls1.totGap                  37976838500                       # Total gap between requests
system.mem_ctrls1.readPktSize::0                    0                       # Read request sizes (log2)
system.mem_ctrls1.readPktSize::1                    0                       # Read request sizes (log2)
system.mem_ctrls1.readPktSize::2                    0                       # Read request sizes (log2)
system.mem_ctrls1.readPktSize::3                    0                       # Read request sizes (log2)
system.mem_ctrls1.readPktSize::4                    0                       # Read request sizes (log2)
system.mem_ctrls1.readPktSize::5                    0                       # Read request sizes (log2)
system.mem_ctrls1.readPktSize::6                76291                       # Read request sizes (log2)
system.mem_ctrls1.writePktSize::0                   0                       # Write request sizes (log2)
system.mem_ctrls1.writePktSize::1                   0                       # Write request sizes (log2)
system.mem_ctrls1.writePktSize::2                   0                       # Write request sizes (log2)
system.mem_ctrls1.writePktSize::3                   0                       # Write request sizes (log2)
system.mem_ctrls1.writePktSize::4                   0                       # Write request sizes (log2)
system.mem_ctrls1.writePktSize::5                   0                       # Write request sizes (log2)
system.mem_ctrls1.writePktSize::6               60722                       # Write request sizes (log2)
system.mem_ctrls1.rdQLenPdf::0                  59179                       # What read queue length does an incoming req see
system.mem_ctrls1.rdQLenPdf::1                  10140                       # What read queue length does an incoming req see
system.mem_ctrls1.rdQLenPdf::2                   3350                       # What read queue length does an incoming req see
system.mem_ctrls1.rdQLenPdf::3                   1466                       # What read queue length does an incoming req see
system.mem_ctrls1.rdQLenPdf::4                    754                       # What read queue length does an incoming req see
system.mem_ctrls1.rdQLenPdf::5                    442                       # What read queue length does an incoming req see
system.mem_ctrls1.rdQLenPdf::6                    288                       # What read queue length does an incoming req see
system.mem_ctrls1.rdQLenPdf::7                    166                       # What read queue length does an incoming req see
system.mem_ctrls1.rdQLenPdf::8                    107                       # What read queue length does an incoming req see
system.mem_ctrls1.rdQLenPdf::9                     74                       # What read queue length does an incoming req see
system.mem_ctrls1.rdQLenPdf::10                    58                       # What read queue length does an incoming req see
system.mem_ctrls1.rdQLenPdf::11                    43                       # What read queue length does an incoming req see
system.mem_ctrls1.rdQLenPdf::12                    34                       # What read queue length does an incoming req see
system.mem_ctrls1.rdQLenPdf::13                    29                       # What read queue length does an incoming req see
system.mem_ctrls1.rdQLenPdf::14                    30                       # What read queue length does an incoming req see
system.mem_ctrls1.rdQLenPdf::15                    20                       # What read queue length does an incoming req see
system.mem_ctrls1.rdQLenPdf::16                    18                       # What read queue length does an incoming req see
system.mem_ctrls1.rdQLenPdf::17                    15                       # What read queue length does an incoming req see
system.mem_ctrls1.rdQLenPdf::18                    12                       # What read queue length does an incoming req see
system.mem_ctrls1.rdQLenPdf::19                     9                       # What read queue length does an incoming req see
system.mem_ctrls1.rdQLenPdf::20                    10                       # What read queue length does an incoming req see
system.mem_ctrls1.rdQLenPdf::21                     7                       # What read queue length does an incoming req see
system.mem_ctrls1.rdQLenPdf::22                     7                       # What read queue length does an incoming req see
system.mem_ctrls1.rdQLenPdf::23                     5                       # What read queue length does an incoming req see
system.mem_ctrls1.rdQLenPdf::24                     3                       # What read queue length does an incoming req see
system.mem_ctrls1.rdQLenPdf::25                     3                       # What read queue length does an incoming req see
system.mem_ctrls1.rdQLenPdf::26                     3                       # What read queue length does an incoming req see
system.mem_ctrls1.rdQLenPdf::27                     1                       # What read queue length does an incoming req see
system.mem_ctrls1.rdQLenPdf::28                     1                       # What read queue length does an incoming req see
system.mem_ctrls1.rdQLenPdf::29                     1                       # What read queue length does an incoming req see
system.mem_ctrls1.rdQLenPdf::30                     1                       # What read queue length does an incoming req see
system.mem_ctrls1.rdQLenPdf::31                     4                       # What read queue length does an incoming req see
system.mem_ctrls1.wrQLenPdf::0                  11311                       # What write queue length does an incoming req see
system.mem_ctrls1.wrQLenPdf::1                  12332                       # What write queue length does an incoming req see
system.mem_ctrls1.wrQLenPdf::2                  12333                       # What write queue length does an incoming req see
system.mem_ctrls1.wrQLenPdf::3                  12125                       # What write queue length does an incoming req see
system.mem_ctrls1.wrQLenPdf::4                  11779                       # What write queue length does an incoming req see
system.mem_ctrls1.wrQLenPdf::5                    425                       # What write queue length does an incoming req see
system.mem_ctrls1.wrQLenPdf::6                    175                       # What write queue length does an incoming req see
system.mem_ctrls1.wrQLenPdf::7                    242                       # What write queue length does an incoming req see
system.mem_ctrls1.bytesPerActivate::samples        50670                       # Bytes accessed per row activation
system.mem_ctrls1.bytesPerActivate::mean   173.013460                       # Bytes accessed per row activation
system.mem_ctrls1.bytesPerActivate::gmean   122.032016                       # Bytes accessed per row activation
system.mem_ctrls1.bytesPerActivate::stdev   180.160893                       # Bytes accessed per row activation
system.mem_ctrls1.bytesPerActivate::0-127        25622     50.57%     50.57% # Bytes accessed per row activation
system.mem_ctrls1.bytesPerActivate::128-255        12493     24.66%     75.22% # Bytes accessed per row activation
system.mem_ctrls1.bytesPerActivate::256-383         7569     14.94%     90.16% # Bytes accessed per row activation
system.mem_ctrls1.bytesPerActivate::384-511         1857      3.66%     93.82% # Bytes accessed per row activation
system.mem_ctrls1.bytesPerActivate::512-639         1158      2.29%     96.11% # Bytes accessed per row activation
system.mem_ctrls1.bytesPerActivate::640-767          602      1.19%     97.30% # Bytes accessed per row activation
system.mem_ctrls1.bytesPerActivate::768-895          438      0.86%     98.16% # Bytes accessed per row activation
system.mem_ctrls1.bytesPerActivate::896-1023          322      0.64%     98.80% # Bytes accessed per row activation
system.mem_ctrls1.bytesPerActivate::1024-1151          609      1.20%    100.00% # Bytes accessed per row activation
system.mem_ctrls1.bytesPerActivate::total        50670                       # Bytes accessed per row activation
system.mem_ctrls1.rdPerTurnAround::samples        11326                       # Reads before turning the bus around for writes
system.mem_ctrls1.rdPerTurnAround::mean      6.734240                       # Reads before turning the bus around for writes
system.mem_ctrls1.rdPerTurnAround::stdev    29.890573                       # Reads before turning the bus around for writes
system.mem_ctrls1.rdPerTurnAround::0-127        11321     99.96%     99.96% # Reads before turning the bus around for writes
system.mem_ctrls1.rdPerTurnAround::128-255            3      0.03%     99.98% # Reads before turning the bus around for writes
system.mem_ctrls1.rdPerTurnAround::1152-1279            1      0.01%     99.99% # Reads before turning the bus around for writes
system.mem_ctrls1.rdPerTurnAround::2816-2943            1      0.01%    100.00% # Reads before turning the bus around for writes
system.mem_ctrls1.rdPerTurnAround::total        11326                       # Reads before turning the bus around for writes
system.mem_ctrls1.wrPerTurnAround::samples        11326                       # Writes before turning the bus around for reads
system.mem_ctrls1.wrPerTurnAround::mean      5.361028                       # Writes before turning the bus around for reads
system.mem_ctrls1.wrPerTurnAround::gmean     5.283951                       # Writes before turning the bus around for reads
system.mem_ctrls1.wrPerTurnAround::stdev     1.134907                       # Writes before turning the bus around for reads
system.mem_ctrls1.wrPerTurnAround::4-7          10836     95.67%     95.67% # Writes before turning the bus around for reads
system.mem_ctrls1.wrPerTurnAround::8-11           396      3.50%     99.17% # Writes before turning the bus around for reads
system.mem_ctrls1.wrPerTurnAround::12-15           71      0.63%     99.80% # Writes before turning the bus around for reads
system.mem_ctrls1.wrPerTurnAround::16-19           23      0.20%    100.00% # Writes before turning the bus around for reads
system.mem_ctrls1.wrPerTurnAround::total        11326                       # Writes before turning the bus around for reads
system.mem_ctrls1.totQLat                  1797008081                       # Total ticks spent queuing
system.mem_ctrls1.totMemAccLat             3227258081                       # Total ticks spent from burst creation until serviced by the DRAM
system.mem_ctrls1.totBusLat                 381400000                       # Total ticks spent in databus transfers
system.mem_ctrls1.avgQLat                    23558.05                       # Average queueing delay per DRAM burst
system.mem_ctrls1.avgBusLat                   5000.00                       # Average bus latency per DRAM burst
system.mem_ctrls1.avgMemAccLat               42308.05                       # Average memory access latency per DRAM burst
system.mem_ctrls1.avgRdBW                      128.55                       # Average DRAM read bandwidth in MiByte/s
system.mem_ctrls1.avgWrBW                      102.32                       # Average achieved write bandwidth in MiByte/s
system.mem_ctrls1.avgRdBWSys                   128.57                       # Average system read bandwidth in MiByte/s
system.mem_ctrls1.avgWrBWSys                   102.33                       # Average system write bandwidth in MiByte/s
system.mem_ctrls1.peakBW                     12800.00                       # Theoretical peak bandwidth in MiByte/s
system.mem_ctrls1.busUtil                        1.80                       # Data bus utilization in percentage
system.mem_ctrls1.busUtilRead                    1.00                       # Data bus utilization in percentage for reads
system.mem_ctrls1.busUtilWrite                   0.80                       # Data bus utilization in percentage for writes
system.mem_ctrls1.avgRdQLen                      1.07                       # Average read queue length when enqueuing
system.mem_ctrls1.avgWrQLen                      2.91                       # Average write queue length when enqueuing
system.mem_ctrls1.readRowHits                   52738                       # Number of row buffer hits during reads
system.mem_ctrls1.writeRowHits                  33580                       # Number of row buffer hits during writes
system.mem_ctrls1.readRowHitRate                69.14                       # Row buffer hit rate for reads
system.mem_ctrls1.writeRowHitRate               55.30                       # Row buffer hit rate for writes
system.mem_ctrls1.avgGap                    277176.90                       # Average gap between requests
system.mem_ctrls1.pageHitRate                   63.00                       # Row buffer hit rate, read and write combined
system.mem_ctrls1.memoryStateTime::IDLE    8916103500                       # Time in different power states
system.mem_ctrls1.memoryStateTime::REF     1268020000                       # Time in different power states
system.mem_ctrls1.memoryStateTime::PRE_PDN            0                       # Time in different power states
system.mem_ctrls1.memoryStateTime::ACT    27790300000                       # Time in different power states
system.mem_ctrls1.memoryStateTime::ACT_PDN            0                       # Time in different power states
system.mem_ctrls1.actEnergy::0              192477600                       # Energy for activate commands per rank (pJ)
system.mem_ctrls1.actEnergy::1              190549800                       # Energy for activate commands per rank (pJ)
system.mem_ctrls1.preEnergy::0              105022500                       # Energy for precharge commands per rank (pJ)
system.mem_ctrls1.preEnergy::1              103970625                       # Energy for precharge commands per rank (pJ)
system.mem_ctrls1.readEnergy::0             300736800                       # Energy for read commands per rank (pJ)
system.mem_ctrls1.readEnergy::1             294091200                       # Energy for read commands per rank (pJ)
system.mem_ctrls1.writeEnergy::0            196007040                       # Energy for write commands per rank (pJ)
system.mem_ctrls1.writeEnergy::1            197387280                       # Energy for write commands per rank (pJ)
system.mem_ctrls1.refreshEnergy::0         2480247120                       # Energy for refresh commands per rank (pJ)
system.mem_ctrls1.refreshEnergy::1         2480247120                       # Energy for refresh commands per rank (pJ)
system.mem_ctrls1.actBackEnergy::0        15125263785                       # Energy for active background per rank (pJ)
system.mem_ctrls1.actBackEnergy::1        14398990875                       # Energy for active background per rank (pJ)
system.mem_ctrls1.preBackEnergy::0         9516505500                       # Energy for precharge background per rank (pJ)
system.mem_ctrls1.preBackEnergy::1        10153587000                       # Energy for precharge background per rank (pJ)
system.mem_ctrls1.totalEnergy::0          27916260345                       # Total energy per rank (pJ)
system.mem_ctrls1.totalEnergy::1          27818823900                       # Total energy per rank (pJ)
system.mem_ctrls1.averagePower::0          735.145269                       # Core power per rank (mW)
system.mem_ctrls1.averagePower::1          732.579383                       # Core power per rank (mW)
system.mem_ctrls2.bytes_read::ruby.dir_cntrl2      4881792                       # Number of bytes read from this memory
system.mem_ctrls2.bytes_read::total           4881792                       # Number of bytes read from this memory
system.mem_ctrls2.bytes_written::ruby.dir_cntrl2      3886464                       # Number of bytes written to this memory
system.mem_ctrls2.bytes_written::total        3886464                       # Number of bytes written to this memory
system.mem_ctrls2.num_reads::ruby.dir_cntrl2        76278                       # Number of read requests responded to by this memory
system.mem_ctrls2.num_reads::total              76278                       # Number of read requests responded to by this memory
system.mem_ctrls2.num_writes::ruby.dir_cntrl2        60726                       # Number of write requests responded to by this memory
system.mem_ctrls2.num_writes::total             60726                       # Number of write requests responded to by this memory
system.mem_ctrls2.bw_read::ruby.dir_cntrl2    128544097                       # Total read bandwidth from this memory (bytes/s)
system.mem_ctrls2.bw_read::total            128544097                       # Total read bandwidth from this memory (bytes/s)
system.mem_ctrls2.bw_write::ruby.dir_cntrl2    102335783                       # Write bandwidth from this memory (bytes/s)
system.mem_ctrls2.bw_write::total           102335783                       # Write bandwidth from this memory (bytes/s)
system.mem_ctrls2.bw_total::ruby.dir_cntrl2    230879880                       # Total bandwidth to/from this memory (bytes/s)
system.mem_ctrls2.bw_total::total           230879880                       # Total bandwidth to/from this memory (bytes/s)
system.mem_ctrls2.readReqs                      76278                       # Number of read requests accepted
system.mem_ctrls2.writeReqs                     60726                       # Number of write requests accepted
system.mem_ctrls2.readBursts                    76278                       # Number of DRAM read bursts, including those serviced by the write queue
system.mem_ctrls2.writeBursts                   60726                       # Number of DRAM write bursts, including those merged in the write queue
system.mem_ctrls2.bytesReadDRAM               4880832                       # Total number of bytes read from DRAM
system.mem_ctrls2.bytesReadWrQ                    960                       # Total number of bytes read from write queue
system.mem_ctrls2.bytesWritten                3886464                       # Total number of bytes written to DRAM
system.mem_ctrls2.bytesReadSys                4881792                       # Total read bytes from the system interface side
system.mem_ctrls2.bytesWrittenSys             3886464                       # Total written bytes from the system interface side
system.mem_ctrls2.servicedByWrQ                    15                       # Number of DRAM read bursts serviced by the write queue
system.mem_ctrls2.mergedWrBursts                    0                       # Number of DRAM write bursts merged with an existing one
system.mem_ctrls2.neitherReadNorWriteReqs            0                       # Number of requests that are neither read nor write
system.mem_ctrls2.perBankRdBursts::0             4320                       # Per bank write bursts
system.mem_ctrls2.perBankRdBursts::1             4748                       # Per bank write bursts
system.mem_ctrls2.perBankRdBursts::2             4478                       # Per bank write bursts
system.mem_ctrls2.perBankRdBursts::3             4903                       # Per bank write bursts
system.mem_ctrls2.perBankRdBursts::4             4777                       # Per bank write bursts
system.mem_ctrls2.perBankRdBursts::5             5293                       # Per bank write bursts
system.mem_ctrls2.perBankRdBursts::6             4864                       # Per bank write bursts
system.mem_ctrls2.perBankRdBursts::7             5162                       # Per bank write bursts
system.mem_ctrls2.perBankRdBursts::8             4918                       # Per bank write bursts
system.mem_ctrls2.perBankRdBursts::9             5097                       # Per bank write bursts
system.mem_ctrls2.perBankRdBursts::10            4522                       # Per bank write bursts
system.mem_ctrls2.perBankRdBursts::11            4768                       # Per bank write bursts
system.mem_ctrls2.perBankRdBursts::12            4492                       # Per bank write bursts
system.mem_ctrls2.perBankRdBursts::13            4542                       # Per bank write bursts
system.mem_ctrls2.perBankRdBursts::14            4626                       # Per bank write bursts
system.mem_ctrls2.perBankRdBursts::15            4753                       # Per bank write bursts
system.mem_ctrls2.perBankWrBursts::0             3556                       # Per bank write bursts
system.mem_ctrls2.perBankWrBursts::1             3504                       # Per bank write bursts
system.mem_ctrls2.perBankWrBursts::2             3579                       # Per bank write bursts
system.mem_ctrls2.perBankWrBursts::3             3732                       # Per bank write bursts
system.mem_ctrls2.perBankWrBursts::4             3787                       # Per bank write bursts
system.mem_ctrls2.perBankWrBursts::5             4117                       # Per bank write bursts
system.mem_ctrls2.perBankWrBursts::6             3848                       # Per bank write bursts
system.mem_ctrls2.perBankWrBursts::7             4122                       # Per bank write bursts
system.mem_ctrls2.perBankWrBursts::8             3968                       # Per bank write bursts
system.mem_ctrls2.perBankWrBursts::9             4042                       # Per bank write bursts
system.mem_ctrls2.perBankWrBursts::10            3618                       # Per bank write bursts
system.mem_ctrls2.perBankWrBursts::11            3577                       # Per bank write bursts
system.mem_ctrls2.perBankWrBursts::12            3720                       # Per bank write bursts
system.mem_ctrls2.perBankWrBursts::13            3822                       # Per bank write bursts
system.mem_ctrls2.perBankWrBursts::14            3897                       # Per bank write bursts
system.mem_ctrls2.perBankWrBursts::15            3837                       # Per bank write bursts
system.mem_ctrls2.numRdRetry                        0                       # Number of times read queue was full causing retry
system.mem_ctrls2.numWrRetry                      125                       # Number of times write queue was full causing retry
system.mem_ctrls2.totGap                  37977326500                       # Total gap between requests
system.mem_ctrls2.readPktSize::0                    0                       # Read request sizes (log2)
system.mem_ctrls2.readPktSize::1                    0                       # Read request sizes (log2)
system.mem_ctrls2.readPktSize::2                    0                       # Read request sizes (log2)
system.mem_ctrls2.readPktSize::3                    0                       # Read request sizes (log2)
system.mem_ctrls2.readPktSize::4                    0                       # Read request sizes (log2)
system.mem_ctrls2.readPktSize::5                    0                       # Read request sizes (log2)
system.mem_ctrls2.readPktSize::6                76278                       # Read request sizes (log2)
system.mem_ctrls2.writePktSize::0                   0                       # Write request sizes (log2)
system.mem_ctrls2.writePktSize::1                   0                       # Write request sizes (log2)
system.mem_ctrls2.writePktSize::2                   0                       # Write request sizes (log2)
system.mem_ctrls2.writePktSize::3                   0                       # Write request sizes (log2)
system.mem_ctrls2.writePktSize::4                   0                       # Write request sizes (log2)
system.mem_ctrls2.writePktSize::5                   0                       # Write request sizes (log2)
system.mem_ctrls2.writePktSize::6               60726                       # Write request sizes (log2)
system.mem_ctrls2.rdQLenPdf::0                  59304                       # What read queue length does an incoming req see
system.mem_ctrls2.rdQLenPdf::1                  10170                       # What read queue length does an incoming req see
system.mem_ctrls2.rdQLenPdf::2                   3277                       # What read queue length does an incoming req see
system.mem_ctrls2.rdQLenPdf::3                   1390                       # What read queue length does an incoming req see
system.mem_ctrls2.rdQLenPdf::4                    746                       # What read queue length does an incoming req see
system.mem_ctrls2.rdQLenPdf::5                    458                       # What read queue length does an incoming req see
system.mem_ctrls2.rdQLenPdf::6                    279                       # What read queue length does an incoming req see
system.mem_ctrls2.rdQLenPdf::7                    173                       # What read queue length does an incoming req see
system.mem_ctrls2.rdQLenPdf::8                    116                       # What read queue length does an incoming req see
system.mem_ctrls2.rdQLenPdf::9                     77                       # What read queue length does an incoming req see
system.mem_ctrls2.rdQLenPdf::10                    62                       # What read queue length does an incoming req see
system.mem_ctrls2.rdQLenPdf::11                    45                       # What read queue length does an incoming req see
system.mem_ctrls2.rdQLenPdf::12                    29                       # What read queue length does an incoming req see
system.mem_ctrls2.rdQLenPdf::13                    27                       # What read queue length does an incoming req see
system.mem_ctrls2.rdQLenPdf::14                    29                       # What read queue length does an incoming req see
system.mem_ctrls2.rdQLenPdf::15                    24                       # What read queue length does an incoming req see
system.mem_ctrls2.rdQLenPdf::16                    16                       # What read queue length does an incoming req see
system.mem_ctrls2.rdQLenPdf::17                     8                       # What read queue length does an incoming req see
system.mem_ctrls2.rdQLenPdf::18                     8                       # What read queue length does an incoming req see
system.mem_ctrls2.rdQLenPdf::19                     6                       # What read queue length does an incoming req see
system.mem_ctrls2.rdQLenPdf::20                     5                       # What read queue length does an incoming req see
system.mem_ctrls2.rdQLenPdf::21                     6                       # What read queue length does an incoming req see
system.mem_ctrls2.rdQLenPdf::22                     4                       # What read queue length does an incoming req see
system.mem_ctrls2.rdQLenPdf::23                     2                       # What read queue length does an incoming req see
system.mem_ctrls2.rdQLenPdf::24                     2                       # What read queue length does an incoming req see
system.mem_ctrls2.rdQLenPdf::25                     0                       # What read queue length does an incoming req see
system.mem_ctrls2.rdQLenPdf::26                     0                       # What read queue length does an incoming req see
system.mem_ctrls2.rdQLenPdf::27                     0                       # What read queue length does an incoming req see
system.mem_ctrls2.rdQLenPdf::28                     0                       # What read queue length does an incoming req see
system.mem_ctrls2.rdQLenPdf::29                     0                       # What read queue length does an incoming req see
system.mem_ctrls2.rdQLenPdf::30                     0                       # What read queue length does an incoming req see
system.mem_ctrls2.rdQLenPdf::31                     0                       # What read queue length does an incoming req see
system.mem_ctrls2.wrQLenPdf::0                  11318                       # What write queue length does an incoming req see
system.mem_ctrls2.wrQLenPdf::1                  12371                       # What write queue length does an incoming req see
system.mem_ctrls2.wrQLenPdf::2                  12381                       # What write queue length does an incoming req see
system.mem_ctrls2.wrQLenPdf::3                  12121                       # What write queue length does an incoming req see
system.mem_ctrls2.wrQLenPdf::4                  11754                       # What write queue length does an incoming req see
system.mem_ctrls2.wrQLenPdf::5                    404                       # What write queue length does an incoming req see
system.mem_ctrls2.wrQLenPdf::6                    160                       # What write queue length does an incoming req see
system.mem_ctrls2.wrQLenPdf::7                    217                       # What write queue length does an incoming req see
system.mem_ctrls2.bytesPerActivate::samples        50781                       # Bytes accessed per row activation
system.mem_ctrls2.bytesPerActivate::mean   172.625194                       # Bytes accessed per row activation
system.mem_ctrls2.bytesPerActivate::gmean   121.730565                       # Bytes accessed per row activation
system.mem_ctrls2.bytesPerActivate::stdev   179.765340                       # Bytes accessed per row activation
system.mem_ctrls2.bytesPerActivate::0-127        25843     50.89%     50.89% # Bytes accessed per row activation
system.mem_ctrls2.bytesPerActivate::128-255        12427     24.47%     75.36% # Bytes accessed per row activation
system.mem_ctrls2.bytesPerActivate::256-383         7488     14.75%     90.11% # Bytes accessed per row activation
system.mem_ctrls2.bytesPerActivate::384-511         1903      3.75%     93.86% # Bytes accessed per row activation
system.mem_ctrls2.bytesPerActivate::512-639         1148      2.26%     96.12% # Bytes accessed per row activation
system.mem_ctrls2.bytesPerActivate::640-767          603      1.19%     97.30% # Bytes accessed per row activation
system.mem_ctrls2.bytesPerActivate::768-895          453      0.89%     98.20% # Bytes accessed per row activation
system.mem_ctrls2.bytesPerActivate::896-1023          308      0.61%     98.80% # Bytes accessed per row activation
system.mem_ctrls2.bytesPerActivate::1024-1151          608      1.20%    100.00% # Bytes accessed per row activation
system.mem_ctrls2.bytesPerActivate::total        50781                       # Bytes accessed per row activation
system.mem_ctrls2.rdPerTurnAround::samples        11330                       # Reads before turning the bus around for writes
system.mem_ctrls2.rdPerTurnAround::mean      6.730980                       # Reads before turning the bus around for writes
system.mem_ctrls2.rdPerTurnAround::stdev    29.955756                       # Reads before turning the bus around for writes
system.mem_ctrls2.rdPerTurnAround::0-127        11325     99.96%     99.96% # Reads before turning the bus around for writes
system.mem_ctrls2.rdPerTurnAround::128-255            3      0.03%     99.98% # Reads before turning the bus around for writes
system.mem_ctrls2.rdPerTurnAround::1152-1279            1      0.01%     99.99% # Reads before turning the bus around for writes
system.mem_ctrls2.rdPerTurnAround::2816-2943            1      0.01%    100.00% # Reads before turning the bus around for writes
system.mem_ctrls2.rdPerTurnAround::total        11330                       # Reads before turning the bus around for writes
system.mem_ctrls2.wrPerTurnAround::samples        11330                       # Writes before turning the bus around for reads
system.mem_ctrls2.wrPerTurnAround::mean      5.359753                       # Writes before turning the bus around for reads
system.mem_ctrls2.wrPerTurnAround::gmean     5.283060                       # Writes before turning the bus around for reads
system.mem_ctrls2.wrPerTurnAround::stdev     1.132717                       # Writes before turning the bus around for reads
system.mem_ctrls2.wrPerTurnAround::4-7          10849     95.75%     95.75% # Writes before turning the bus around for reads
system.mem_ctrls2.wrPerTurnAround::8-11           385      3.40%     99.15% # Writes before turning the bus around for reads
system.mem_ctrls2.wrPerTurnAround::12-15           77      0.68%     99.83% # Writes before turning the bus around for reads
system.mem_ctrls2.wrPerTurnAround::16-19           19      0.17%    100.00% # Writes before turning the bus around for reads
system.mem_ctrls2.wrPerTurnAround::total        11330                       # Writes before turning the bus around for reads
system.mem_ctrls2.totQLat                  1794229126                       # Total ticks spent queuing
system.mem_ctrls2.totMemAccLat             3224160376                       # Total ticks spent from burst creation until serviced by the DRAM
system.mem_ctrls2.totBusLat                 381315000                       # Total ticks spent in databus transfers
system.mem_ctrls2.avgQLat                    23526.86                       # Average queueing delay per DRAM burst
system.mem_ctrls2.avgBusLat                   5000.00                       # Average bus latency per DRAM burst
system.mem_ctrls2.avgMemAccLat               42276.86                       # Average memory access latency per DRAM burst
system.mem_ctrls2.avgRdBW                      128.52                       # Average DRAM read bandwidth in MiByte/s
system.mem_ctrls2.avgWrBW                      102.34                       # Average achieved write bandwidth in MiByte/s
system.mem_ctrls2.avgRdBWSys                   128.54                       # Average system read bandwidth in MiByte/s
system.mem_ctrls2.avgWrBWSys                   102.34                       # Average system write bandwidth in MiByte/s
system.mem_ctrls2.peakBW                     12800.00                       # Theoretical peak bandwidth in MiByte/s
system.mem_ctrls2.busUtil                        1.80                       # Data bus utilization in percentage
system.mem_ctrls2.busUtilRead                    1.00                       # Data bus utilization in percentage for reads
system.mem_ctrls2.busUtilWrite                   0.80                       # Data bus utilization in percentage for writes
system.mem_ctrls2.avgRdQLen                      1.07                       # Average read queue length when enqueuing
system.mem_ctrls2.avgWrQLen                      2.93                       # Average write queue length when enqueuing
system.mem_ctrls2.readRowHits                   52677                       # Number of row buffer hits during reads
system.mem_ctrls2.writeRowHits                  33521                       # Number of row buffer hits during writes
system.mem_ctrls2.readRowHitRate                69.07                       # Row buffer hit rate for reads
system.mem_ctrls2.writeRowHitRate               55.20                       # Row buffer hit rate for writes
system.mem_ctrls2.avgGap                    277198.67                       # Average gap between requests
system.mem_ctrls2.pageHitRate                   62.92                       # Row buffer hit rate, read and write combined
system.mem_ctrls2.memoryStateTime::IDLE    8909418500                       # Time in different power states
system.mem_ctrls2.memoryStateTime::REF     1268020000                       # Time in different power states
system.mem_ctrls2.memoryStateTime::PRE_PDN            0                       # Time in different power states
system.mem_ctrls2.memoryStateTime::ACT    27796376500                       # Time in different power states
system.mem_ctrls2.memoryStateTime::ACT_PDN            0                       # Time in different power states
system.mem_ctrls2.actEnergy::0              192757320                       # Energy for activate commands per rank (pJ)
system.mem_ctrls2.actEnergy::1              191109240                       # Energy for activate commands per rank (pJ)
system.mem_ctrls2.preEnergy::0              105175125                       # Energy for precharge commands per rank (pJ)
system.mem_ctrls2.preEnergy::1              104275875                       # Energy for precharge commands per rank (pJ)
system.mem_ctrls2.readEnergy::0             300573000                       # Energy for read commands per rank (pJ)
system.mem_ctrls2.readEnergy::1             294161400                       # Energy for read commands per rank (pJ)
system.mem_ctrls2.writeEnergy::0            195981120                       # Energy for write commands per rank (pJ)
system.mem_ctrls2.writeEnergy::1            197458560                       # Energy for write commands per rank (pJ)
system.mem_ctrls2.refreshEnergy::0         2480247120                       # Energy for refresh commands per rank (pJ)
system.mem_ctrls2.refreshEnergy::1         2480247120                       # Energy for refresh commands per rank (pJ)
system.mem_ctrls2.actBackEnergy::0        14999937030                       # Energy for active background per rank (pJ)
system.mem_ctrls2.actBackEnergy::1        14526498735                       # Energy for active background per rank (pJ)
system.mem_ctrls2.preBackEnergy::0         9626441250                       # Energy for precharge background per rank (pJ)
system.mem_ctrls2.preBackEnergy::1        10041738000                       # Energy for precharge background per rank (pJ)
system.mem_ctrls2.totalEnergy::0          27901111965                       # Total energy per rank (pJ)
system.mem_ctrls2.totalEnergy::1          27835488930                       # Total energy per rank (pJ)
system.mem_ctrls2.averagePower::0          734.746353                       # Core power per rank (mW)
system.mem_ctrls2.averagePower::1          733.018239                       # Core power per rank (mW)
system.mem_ctrls3.bytes_read::ruby.dir_cntrl3      4859072                       # Number of bytes read from this memory
system.mem_ctrls3.bytes_read::total           4859072                       # Number of bytes read from this memory
system.mem_ctrls3.bytes_written::ruby.dir_cntrl3      3880320                       # Number of bytes written to this memory
system.mem_ctrls3.bytes_written::total        3880320                       # Number of bytes written to this memory
system.mem_ctrls3.num_reads::ruby.dir_cntrl3        75923                       # Number of read requests responded to by this memory
system.mem_ctrls3.num_reads::total              75923                       # Number of read requests responded to by this memory
system.mem_ctrls3.num_writes::ruby.dir_cntrl3        60630                       # Number of write requests responded to by this memory
system.mem_ctrls3.num_writes::total             60630                       # Number of write requests responded to by this memory
system.mem_ctrls3.bw_read::ruby.dir_cntrl3    127945849                       # Total read bandwidth from this memory (bytes/s)
system.mem_ctrls3.bw_read::total            127945849                       # Total read bandwidth from this memory (bytes/s)
system.mem_ctrls3.bw_write::ruby.dir_cntrl3    102174003                       # Write bandwidth from this memory (bytes/s)
system.mem_ctrls3.bw_write::total           102174003                       # Write bandwidth from this memory (bytes/s)
system.mem_ctrls3.bw_total::ruby.dir_cntrl3    230119852                       # Total bandwidth to/from this memory (bytes/s)
system.mem_ctrls3.bw_total::total           230119852                       # Total bandwidth to/from this memory (bytes/s)
system.mem_ctrls3.readReqs                      75924                       # Number of read requests accepted
system.mem_ctrls3.writeReqs                     60630                       # Number of write requests accepted
system.mem_ctrls3.readBursts                    75924                       # Number of DRAM read bursts, including those serviced by the write queue
system.mem_ctrls3.writeBursts                   60630                       # Number of DRAM write bursts, including those merged in the write queue
system.mem_ctrls3.bytesReadDRAM               4858560                       # Total number of bytes read from DRAM
system.mem_ctrls3.bytesReadWrQ                    576                       # Total number of bytes read from write queue
system.mem_ctrls3.bytesWritten                3880256                       # Total number of bytes written to DRAM
system.mem_ctrls3.bytesReadSys                4859136                       # Total read bytes from the system interface side
system.mem_ctrls3.bytesWrittenSys             3880320                       # Total written bytes from the system interface side
system.mem_ctrls3.servicedByWrQ                     9                       # Number of DRAM read bursts serviced by the write queue
system.mem_ctrls3.mergedWrBursts                    0                       # Number of DRAM write bursts merged with an existing one
system.mem_ctrls3.neitherReadNorWriteReqs            0                       # Number of requests that are neither read nor write
system.mem_ctrls3.perBankRdBursts::0             4297                       # Per bank write bursts
system.mem_ctrls3.perBankRdBursts::1             4717                       # Per bank write bursts
system.mem_ctrls3.perBankRdBursts::2             4425                       # Per bank write bursts
system.mem_ctrls3.perBankRdBursts::3             4861                       # Per bank write bursts
system.mem_ctrls3.perBankRdBursts::4             4732                       # Per bank write bursts
system.mem_ctrls3.perBankRdBursts::5             5240                       # Per bank write bursts
system.mem_ctrls3.perBankRdBursts::6             4870                       # Per bank write bursts
system.mem_ctrls3.perBankRdBursts::7             5147                       # Per bank write bursts
system.mem_ctrls3.perBankRdBursts::8             4922                       # Per bank write bursts
system.mem_ctrls3.perBankRdBursts::9             5080                       # Per bank write bursts
system.mem_ctrls3.perBankRdBursts::10            4524                       # Per bank write bursts
system.mem_ctrls3.perBankRdBursts::11            4731                       # Per bank write bursts
system.mem_ctrls3.perBankRdBursts::12            4478                       # Per bank write bursts
system.mem_ctrls3.perBankRdBursts::13            4517                       # Per bank write bursts
system.mem_ctrls3.perBankRdBursts::14            4646                       # Per bank write bursts
system.mem_ctrls3.perBankRdBursts::15            4728                       # Per bank write bursts
system.mem_ctrls3.perBankWrBursts::0             3554                       # Per bank write bursts
system.mem_ctrls3.perBankWrBursts::1             3504                       # Per bank write bursts
system.mem_ctrls3.perBankWrBursts::2             3571                       # Per bank write bursts
system.mem_ctrls3.perBankWrBursts::3             3718                       # Per bank write bursts
system.mem_ctrls3.perBankWrBursts::4             3782                       # Per bank write bursts
system.mem_ctrls3.perBankWrBursts::5             4100                       # Per bank write bursts
system.mem_ctrls3.perBankWrBursts::6             3839                       # Per bank write bursts
system.mem_ctrls3.perBankWrBursts::7             4105                       # Per bank write bursts
system.mem_ctrls3.perBankWrBursts::8             3971                       # Per bank write bursts
system.mem_ctrls3.perBankWrBursts::9             4039                       # Per bank write bursts
system.mem_ctrls3.perBankWrBursts::10            3609                       # Per bank write bursts
system.mem_ctrls3.perBankWrBursts::11            3581                       # Per bank write bursts
system.mem_ctrls3.perBankWrBursts::12            3713                       # Per bank write bursts
system.mem_ctrls3.perBankWrBursts::13            3823                       # Per bank write bursts
system.mem_ctrls3.perBankWrBursts::14            3896                       # Per bank write bursts
system.mem_ctrls3.perBankWrBursts::15            3824                       # Per bank write bursts
system.mem_ctrls3.numRdRetry                        6                       # Number of times read queue was full causing retry
system.mem_ctrls3.numWrRetry                      158                       # Number of times write queue was full causing retry
system.mem_ctrls3.totGap                  37976817500                       # Total gap between requests
system.mem_ctrls3.readPktSize::0                    0                       # Read request sizes (log2)
system.mem_ctrls3.readPktSize::1                    0                       # Read request sizes (log2)
system.mem_ctrls3.readPktSize::2                    0                       # Read request sizes (log2)
system.mem_ctrls3.readPktSize::3                    0                       # Read request sizes (log2)
system.mem_ctrls3.readPktSize::4                    0                       # Read request sizes (log2)
system.mem_ctrls3.readPktSize::5                    0                       # Read request sizes (log2)
system.mem_ctrls3.readPktSize::6                75924                       # Read request sizes (log2)
system.mem_ctrls3.writePktSize::0                   0                       # Write request sizes (log2)
system.mem_ctrls3.writePktSize::1                   0                       # Write request sizes (log2)
system.mem_ctrls3.writePktSize::2                   0                       # Write request sizes (log2)
system.mem_ctrls3.writePktSize::3                   0                       # Write request sizes (log2)
system.mem_ctrls3.writePktSize::4                   0                       # Write request sizes (log2)
system.mem_ctrls3.writePktSize::5                   0                       # Write request sizes (log2)
system.mem_ctrls3.writePktSize::6               60630                       # Write request sizes (log2)
system.mem_ctrls3.rdQLenPdf::0                  59079                       # What read queue length does an incoming req see
system.mem_ctrls3.rdQLenPdf::1                  10008                       # What read queue length does an incoming req see
system.mem_ctrls3.rdQLenPdf::2                   3292                       # What read queue length does an incoming req see
system.mem_ctrls3.rdQLenPdf::3                   1364                       # What read queue length does an incoming req see
system.mem_ctrls3.rdQLenPdf::4                    778                       # What read queue length does an incoming req see
system.mem_ctrls3.rdQLenPdf::5                    476                       # What read queue length does an incoming req see
system.mem_ctrls3.rdQLenPdf::6                    298                       # What read queue length does an incoming req see
system.mem_ctrls3.rdQLenPdf::7                    173                       # What read queue length does an incoming req see
system.mem_ctrls3.rdQLenPdf::8                     92                       # What read queue length does an incoming req see
system.mem_ctrls3.rdQLenPdf::9                     68                       # What read queue length does an incoming req see
system.mem_ctrls3.rdQLenPdf::10                    46                       # What read queue length does an incoming req see
system.mem_ctrls3.rdQLenPdf::11                    32                       # What read queue length does an incoming req see
system.mem_ctrls3.rdQLenPdf::12                    28                       # What read queue length does an incoming req see
system.mem_ctrls3.rdQLenPdf::13                    23                       # What read queue length does an incoming req see
system.mem_ctrls3.rdQLenPdf::14                    26                       # What read queue length does an incoming req see
system.mem_ctrls3.rdQLenPdf::15                    22                       # What read queue length does an incoming req see
system.mem_ctrls3.rdQLenPdf::16                    19                       # What read queue length does an incoming req see
system.mem_ctrls3.rdQLenPdf::17                    15                       # What read queue length does an incoming req see
system.mem_ctrls3.rdQLenPdf::18                    12                       # What read queue length does an incoming req see
system.mem_ctrls3.rdQLenPdf::19                     9                       # What read queue length does an incoming req see
system.mem_ctrls3.rdQLenPdf::20                     8                       # What read queue length does an incoming req see
system.mem_ctrls3.rdQLenPdf::21                     7                       # What read queue length does an incoming req see
system.mem_ctrls3.rdQLenPdf::22                     7                       # What read queue length does an incoming req see
system.mem_ctrls3.rdQLenPdf::23                     8                       # What read queue length does an incoming req see
system.mem_ctrls3.rdQLenPdf::24                    10                       # What read queue length does an incoming req see
[...]
system.ruby.L2Cache_Controller.MT_IIB.WB_Data::total       204522                      
system.ruby.L2Cache_Controller.MT_IIB.WB_Data_clean |         688      3.23%      3.23% |         685      3.22%      6.44% |         660      3.10%      9.54% |         662      3.11%     12.65% |         693      3.25%     15.90% |         676      3.17%     19.08% |         667      3.13%     22.21% |         651      3.06%     25.26% |         664      3.12%     28.38% |         658      3.09%     31.47% |         673      3.16%     34.63% |         663      3.11%     37.74% |         665      3.12%     40.86% |         653      3.07%     43.92% |         664      3.12%     47.04% |         674      3.16%     50.20% |         658      3.09%     53.29% |         659      3.09%     56.39% |         662      3.11%     59.49% |         672      3.15%     62.65% |         666      3.13%     65.77% |         639      3.00%     68.77% |         665      3.12%     71.89% |         657      3.08%     74.98% |         672      3.15%     78.13% |         656      3.08%     81.21% |         648      3.04%     84.25% |         661      3.10%     87.36% |         697      3.27%     90.63% |         669      3.14%     93.77% |         674      3.16%     96.93% |         654      3.07%    100.00%
system.ruby.L2Cache_Controller.MT_IIB.WB_Data_clean::total        21305                      
system.ruby.L2Cache_Controller.MT_IIB.Unblock |          48      0.79%      0.79% |          63      1.04%      1.83% |         200      3.30%      5.13% |         227      3.75%      8.88% |         109      1.80%     10.67% |         209      3.45%     14.12% |         224      3.70%     17.82% |         288      4.75%     22.57% |         242      3.99%     26.56% |         198      3.27%     29.83% |         168      2.77%     32.60% |         228      3.76%     36.36% |         177      2.92%     39.28% |         225      3.71%     43.00% |         143      2.36%     45.36% |         115      1.90%     47.25% |         172      2.84%     50.09% |         246      4.06%     54.15% |         223      3.68%     57.83% |         227      3.75%     61.57% |         230      3.79%     65.37% |         190      3.13%     68.50% |         136      2.24%     70.75% |         145      2.39%     73.14% |         216      3.56%     76.70% |         145      2.39%     79.10% |         225      3.71%     82.81% |         219      3.61%     86.42% |         150      2.47%     88.90% |         285      4.70%     93.60% |         132      2.18%     95.78% |         256      4.22%    100.00%
system.ruby.L2Cache_Controller.MT_IIB.Unblock::total         6061                      
system.ruby.L2Cache_Controller.MT_IB.L1_GETS |           0      0.00%      0.00% |           0      0.00%      0.00% |           0      0.00%      0.00% |           1     16.67%     16.67% |           0      0.00%     16.67% |           0      0.00%     16.67% |           0      0.00%     16.67% |           0      0.00%     16.67% |           0      0.00%     16.67% |           0      0.00%     16.67% |           0      0.00%     16.67% |           0      0.00%     16.67% |           0      0.00%     16.67% |           1     16.67%     33.33% |           2     33.33%     66.67% |           0      0.00%     66.67% |           0      0.00%     66.67% |           0      0.00%     66.67% |           0      0.00%     66.67% |           0      0.00%     66.67% |           1     16.67%     83.33% |           0      0.00%     83.33% |           0      0.00%     83.33% |           0      0.00%     83.33% |           1     16.67%    100.00% |           0      0.00%    100.00% |           0      0.00%    100.00% |           0      0.00%    100.00% |           0      0.00%    100.00% |           0      0.00%    100.00% |           0      0.00%    100.00% |           0      0.00%    100.00%
system.ruby.L2Cache_Controller.MT_IB.L1_GETS::total            6                      
system.ruby.L2Cache_Controller.MT_IB.L1_GETX |           0      0.00%      0.00% |           0      0.00%      0.00% |           1    100.00%    100.00% |           0      0.00%    100.00% |           0      0.00%    100.00% |           0      0.00%    100.00% |           0      0.00%    100.00% |           0      0.00%    100.00% |           0      0.00%    100.00% |           0      0.00%    100.00% |           0      0.00%    100.00% |           0      0.00%    100.00% |           0      0.00%    100.00% |           0      0.00%    100.00% |           0      0.00%    100.00% |           0      0.00%    100.00% |           0      0.00%    100.00% |           0      0.00%    100.00% |           0      0.00%    100.00% |           0      0.00%    100.00% |           0      0.00%    100.00% |           0      0.00%    100.00% |           0      0.00%    100.00% |           0      0.00%    100.00% |           0      0.00%    100.00% |           0      0.00%    100.00% |           0      0.00%    100.00% |           0      0.00%    100.00% |           0      0.00%    100.00% |           0      0.00%    100.00% |           0      0.00%    100.00% |           0      0.00%    100.00%
system.ruby.L2Cache_Controller.MT_IB.L1_GETX::total            1                      
system.ruby.L2Cache_Controller.MT_IB.L1_UPGRADE |           0      0.00%      0.00% |           0      0.00%      0.00% |           0      0.00%      0.00% |           0      0.00%      0.00% |           0      0.00%      0.00% |           0      0.00%      0.00% |           0      0.00%      0.00% |           2     10.53%     10.53% |           1      5.26%     15.79% |           0      0.00%     15.79% |           1      5.26%     21.05% |           2     10.53%     31.58% |           0      0.00%     31.58% |           0      0.00%     31.58% |           0      0.00%     31.58% |           0      0.00%     31.58% |           0      0.00%     31.58% |           1      5.26%     36.84% |           1      5.26%     42.11% |           2     10.53%     52.63% |           1      5.26%     57.89% |           0      0.00%     57.89% |           0      0.00%     57.89% |           0      0.00%     57.89% |           1      5.26%     63.16% |           0      0.00%     63.16% |           3     15.79%     78.95% |           2     10.53%     89.47% |           0      0.00%     89.47% |           1      5.26%     94.74% |           0      0.00%     94.74% |           1      5.26%    100.00%
system.ruby.L2Cache_Controller.MT_IB.L1_UPGRADE::total           19                      
system.ruby.L2Cache_Controller.MT_IB.WB_Data |          41      0.73%      0.73% |          57      1.01%      1.73% |         191      3.38%      5.11% |         216      3.82%      8.94% |         106      1.88%     10.81% |         192      3.40%     14.21% |         207      3.66%     17.87% |         268      4.74%     22.62% |         225      3.98%     26.60% |         185      3.27%     29.87% |         155      2.74%     32.61% |         218      3.86%     36.47% |         167      2.96%     39.43% |         202      3.57%     43.00% |         129      2.28%     45.28% |         110      1.95%     47.23% |         163      2.88%     50.12% |         233      4.12%     54.24% |         209      3.70%     57.94% |         211      3.73%     61.67% |         217      3.84%     65.51% |         177      3.13%     68.64% |         122      2.16%     70.80% |         137      2.42%     73.23% |         199      3.52%     76.75% |         135      2.39%     79.14% |         210      3.72%     82.85% |         206      3.65%     86.50% |         142      2.51%     89.01% |         268      4.74%     93.75% |         125      2.21%     95.97% |         228      4.03%    100.00%
system.ruby.L2Cache_Controller.MT_IB.WB_Data::total         5651                      
system.ruby.L2Cache_Controller.MT_IB.WB_Data_clean |           7      1.71%      1.71% |           6      1.46%      3.17% |           9      2.20%      5.37% |          11      2.68%      8.05% |           3      0.73%      8.78% |          17      4.15%     12.93% |          17      4.15%     17.07% |          20      4.88%     21.95% |          17      4.15%     26.10% |          13      3.17%     29.27% |          13      3.17%     32.44% |          10      2.44%     34.88% |          10      2.44%     37.32% |          23      5.61%     42.93% |          14      3.41%     46.34% |           5      1.22%     47.56% |           9      2.20%     49.76% |          13      3.17%     52.93% |          14      3.41%     56.34% |          16      3.90%     60.24% |          13      3.17%     63.41% |          13      3.17%     66.59% |          14      3.41%     70.00% |           8      1.95%     71.95% |          17      4.15%     76.10% |          10      2.44%     78.54% |          15      3.66%     82.20% |          13      3.17%     85.37% |           8      1.95%     87.32% |          17      4.15%     91.46% |           7      1.71%     93.17% |          28      6.83%    100.00%
system.ruby.L2Cache_Controller.MT_IB.WB_Data_clean::total          410                      
system.ruby.L2Cache_Controller.MT_SB.L1_GETS |          23      2.34%      2.34% |          30      3.05%      5.38% |          26      2.64%      8.02% |          29      2.94%     10.96% |          43      4.37%     15.33% |          29      2.94%     18.27% |          40      4.06%     22.34% |          27      2.74%     25.08% |          38      3.86%     28.93% |          31      3.15%     32.08% |          29      2.94%     35.03% |          39      3.96%     38.98% |          30      3.05%     42.03% |          29      2.94%     44.97% |          30      3.05%     48.02% |          32      3.25%     51.27% |          30      3.05%     54.31% |          32      3.25%     57.56% |          23      2.34%     59.90% |          32      3.25%     63.15% |          24      2.44%     65.58% |          30      3.05%     68.63% |          31      3.15%     71.78% |          30      3.05%     74.82% |          26      2.64%     77.46% |          36      3.65%     81.12% |          33      3.35%     84.47% |          31      3.15%     87.61% |          34      3.45%     91.07% |          33      3.35%     94.42% |          31      3.15%     97.56% |          24      2.44%    100.00%
system.ruby.L2Cache_Controller.MT_SB.L1_GETS::total          985                      
system.ruby.L2Cache_Controller.MT_SB.L1_GETX |          12      2.54%      2.54% |          10      2.11%      4.65% |          16      3.38%      8.03% |          16      3.38%     11.42% |           7      1.48%     12.90% |          11      2.33%     15.22% |          17      3.59%     18.82% |          18      3.81%     22.62% |          14      2.96%     25.58% |          15      3.17%     28.75% |          13      2.75%     31.50% |          13      2.75%     34.25% |          14      2.96%     37.21% |          16      3.38%     40.59% |          22      4.65%     45.24% |          20      4.23%     49.47% |           7      1.48%     50.95% |          15      3.17%     54.12% |          23      4.86%     58.99% |          13      2.75%     61.73% |          12      2.54%     64.27% |          18      3.81%     68.08% |          14      2.96%     71.04% |          19      4.02%     75.05% |          16      3.38%     78.44% |          12      2.54%     80.97% |          16      3.38%     84.36% |          12      2.54%     86.89% |          17      3.59%     90.49% |          13      2.75%     93.23% |          17      3.59%     96.83% |          15      3.17%    100.00%
system.ruby.L2Cache_Controller.MT_SB.L1_GETX::total          473                      
system.ruby.L2Cache_Controller.MT_SB.L1_UPGRADE |          10      3.04%      3.04% |          12      3.65%      6.69% |           8      2.43%      9.12% |           5      1.52%     10.64% |           9      2.74%     13.37% |          10      3.04%     16.41% |          15      4.56%     20.97% |           9      2.74%     23.71% |           9      2.74%     26.44% |           6      1.82%     28.27% |          15      4.56%     32.83% |           9      2.74%     35.56% |           8      2.43%     37.99% |           9      2.74%     40.73% |           4      1.22%     41.95% |          15      4.56%     46.50% |           8      2.43%     48.94% |          12      3.65%     52.58% |          14      4.26%     56.84% |          14      4.26%     61.09% |          11      3.34%     64.44% |           8      2.43%     66.87% |           8      2.43%     69.30% |          11      3.34%     72.64% |          12      3.65%     76.29% |          15      4.56%     80.85% |          13      3.95%     84.80% |          11      3.34%     88.15% |          11      3.34%     91.49% |          10      3.04%     94.53% |           9      2.74%     97.26% |           9      2.74%    100.00%
system.ruby.L2Cache_Controller.MT_SB.L1_UPGRADE::total          329                      
system.ruby.L2Cache_Controller.MT_SB.Unblock |        7337      3.25%      3.25% |        7215      3.19%      6.44% |        7025      3.11%      9.55% |        6962      3.08%     12.64% |        7246      3.21%     15.85% |        7020      3.11%     18.95% |        7037      3.12%     22.07% |        6969      3.09%     25.16% |        7074      3.13%     28.29% |        6997      3.10%     31.39% |        7123      3.15%     34.54% |        6983      3.09%     37.63% |        7160      3.17%     40.80% |        6944      3.07%     43.88% |        7071      3.13%     47.01% |        7106      3.15%     50.16% |        7206      3.19%     53.35% |        6924      3.07%     56.41% |        6996      3.10%     59.51% |        6975      3.09%     62.60% |        7136      3.16%     65.76% |        6974      3.09%     68.85% |        7044      3.12%     71.97% |        7023      3.11%     75.08% |        7190      3.18%     78.26% |        7036      3.12%     81.38% |        6903      3.06%     84.43% |        6955      3.08%     87.51% |        7270      3.22%     90.73% |        6919      3.06%     93.80% |        7086      3.14%     96.94% |        6921      3.06%    100.00%
system.ruby.L2Cache_Controller.MT_SB.Unblock::total       225827                      
system.ruby.SimicsNetworkPortInterface_Controller.MessageSend |      308357     17.95%     17.95% |      858732     50.00%     67.95% |       69780      4.06%     72.02% |       74477      4.34%     76.35% |       68406      3.98%     80.34% |       73512      4.28%     84.62% |       68663      4.00%     88.61% |       74935      4.36%     92.98% |       57462      3.35%     96.32% |       63140      3.68%    100.00% |           0      0.00%    100.00% |           0      0.00%    100.00% |           0      0.00%    100.00% |           0      0.00%    100.00% |           0      0.00%    100.00% |           0      0.00%    100.00% |           0      0.00%    100.00% |           0      0.00%    100.00% |           0      0.00%    100.00% |           0      0.00%    100.00% |           0      0.00%    100.00% |           0      0.00%    100.00% |           0      0.00%    100.00% |           0      0.00%    100.00% |           0      0.00%    100.00% |           0      0.00%    100.00% |           0      0.00%    100.00% |           0      0.00%    100.00% |           0      0.00%    100.00% |           0      0.00%    100.00% |           0      0.00%    100.00% |           0      0.00%    100.00%
system.ruby.SimicsNetworkPortInterface_Controller.MessageSend::total      1717464                      
system.ruby.SimicsNetworkPortInterface_Controller.MessageRecv |      308357     17.95%     17.95% |      858732     50.00%     67.95% |       69780      4.06%     72.02% |       74477      4.34%     76.35% |       68406      3.98%     80.34% |       73512      4.28%     84.62% |       68663      4.00%     88.61% |       74935      4.36%     92.98% |       57462      3.35%     96.32% |       63140      3.68%    100.00% |           0      0.00%    100.00% |           0      0.00%    100.00% |           0      0.00%    100.00% |           0      0.00%    100.00% |           0      0.00%    100.00% |           0      0.00%    100.00% |           0      0.00%    100.00% |           0      0.00%    100.00% |           0      0.00%    100.00% |           0      0.00%    100.00% |           0      0.00%    100.00% |           0      0.00%    100.00% |           0      0.00%    100.00% |           0      0.00%    100.00% |           0      0.00%    100.00% |           0      0.00%    100.00% |           0      0.00%    100.00% |           0      0.00%    100.00% |           0      0.00%    100.00% |           0      0.00%    100.00% |           0      0.00%    100.00% |           0      0.00%    100.00%
system.ruby.SimicsNetworkPortInterface_Controller.MessageRecv::total      1717464                      
system.ruby.SimicsNetworkPortInterface_Controller.A.MessageSend |      308357     17.95%     17.95% |      858732     50.00%     67.95% |       69780      4.06%     72.02% |       74477      4.34%     76.35% |       68406      3.98%     80.34% |       73512      4.28%     84.62% |       68663      4.00%     88.61% |       74935      4.36%     92.98% |       57462      3.35%     96.32% |       63140      3.68%    100.00% |           0      0.00%    100.00% |           0      0.00%    100.00% |           0      0.00%    100.00% |           0      0.00%    100.00% |           0      0.00%    100.00% |           0      0.00%    100.00% |           0      0.00%    100.00% |           0      0.00%    100.00% |           0      0.00%    100.00% |           0      0.00%    100.00% |           0      0.00%    100.00% |           0      0.00%    100.00% |           0      0.00%    100.00% |           0      0.00%    100.00% |           0      0.00%    100.00% |           0      0.00%    100.00% |           0      0.00%    100.00% |           0      0.00%    100.00% |           0      0.00%    100.00% |           0      0.00%    100.00% |           0      0.00%    100.00% |           0      0.00%    100.00%
system.ruby.SimicsNetworkPortInterface_Controller.A.MessageSend::total      1717464                      
system.ruby.SimicsNetworkPortInterface_Controller.A.MessageRecv |      308357     17.95%     17.95% |      858732     50.00%     67.95% |       69780      4.06%     72.02% |       74477      4.34%     76.35% |       68406      3.98%     80.34% |       73512      4.28%     84.62% |       68663      4.00%     88.61% |       74935      4.36%     92.98% |       57462      3.35%     96.32% |       63140      3.68%    100.00% |           0      0.00%    100.00% |           0      0.00%    100.00% |           0      0.00%    100.00% |           0      0.00%    100.00% |           0      0.00%    100.00% |           0      0.00%    100.00% |           0      0.00%    100.00% |           0      0.00%    100.00% |           0      0.00%    100.00% |           0      0.00%    100.00% |           0      0.00%    100.00% |           0      0.00%    100.00% |           0      0.00%    100.00% |           0      0.00%    100.00% |           0      0.00%    100.00% |           0      0.00%    100.00% |           0      0.00%    100.00% |           0      0.00%    100.00% |           0      0.00%    100.00% |           0      0.00%    100.00% |           0      0.00%    100.00% |           0      0.00%    100.00%
system.ruby.SimicsNetworkPortInterface_Controller.A.MessageRecv::total      1717464                      
system.switch_cpus.kern.inst.arm                    0                       # number of arm instructions executed
system.switch_cpus.kern.inst.quiesce                0                       # number of quiesce instructions executed

---------- End Simulation Statistics   ----------
