
---------- Begin Simulation Statistics ----------
sim_seconds                                  0.056744                       # Number of seconds simulated
sim_ticks                                 56743634000                       # Number of ticks simulated
final_tick                               5232911712500                       # Number of ticks from beginning of simulation (restored from checkpoints and never reset)
sim_freq                                 1000000000000                       # Frequency of simulated ticks
host_inst_rate                                  56907                       # Simulator instruction rate (inst/s)
host_op_rate                                   100922                       # Simulator op (including micro ops) rate (op/s)
host_tick_rate                              142712636                       # Simulator tick rate (ticks/s)
host_mem_usage                                3581664                       # Number of bytes of host memory used
host_seconds                                   397.61                       # Real time elapsed on the host
sim_insts                                    22626560                       # Number of instructions simulated
sim_ops                                      40127431                       # Number of ops (including micro ops) simulated
system.voltage_domain.voltage                       1                       # Voltage in Volts
system.clk_domain.clock                           500                       # Clock period in ticks
system.mem_ctrls0.bytes_read::ruby.dir_cntrl0     12640000                       # Number of bytes read from this memory
system.mem_ctrls0.bytes_read::total          12640000                       # Number of bytes read from this memory
system.mem_ctrls0.bytes_written::ruby.dir_cntrl0      8046656                       # Number of bytes written to this memory
system.mem_ctrls0.bytes_written::total        8046656                       # Number of bytes written to this memory
system.mem_ctrls0.num_reads::ruby.dir_cntrl0       197500                       # Number of read requests responded to by this memory
system.mem_ctrls0.num_reads::total             197500                       # Number of read requests responded to by this memory
system.mem_ctrls0.num_writes::ruby.dir_cntrl0       125729                       # Number of write requests responded to by this memory
system.mem_ctrls0.num_writes::total            125729                       # Number of write requests responded to by this memory
system.mem_ctrls0.bw_read::ruby.dir_cntrl0    222756265                       # Total read bandwidth from this memory (bytes/s)
system.mem_ctrls0.bw_read::total            222756265                       # Total read bandwidth from this memory (bytes/s)
system.mem_ctrls0.bw_write::ruby.dir_cntrl0    141807203                       # Write bandwidth from this memory (bytes/s)
system.mem_ctrls0.bw_write::total           141807203                       # Write bandwidth from this memory (bytes/s)
system.mem_ctrls0.bw_total::ruby.dir_cntrl0    364563468                       # Total bandwidth to/from this memory (bytes/s)
system.mem_ctrls0.bw_total::total           364563468                       # Total bandwidth to/from this memory (bytes/s)
system.mem_ctrls0.readReqs                     197500                       # Number of read requests accepted
system.mem_ctrls0.writeReqs                    125729                       # Number of write requests accepted
system.mem_ctrls0.readBursts                   197500                       # Number of DRAM read bursts, including those serviced by the write queue
system.mem_ctrls0.writeBursts                  125729                       # Number of DRAM write bursts, including those merged in the write queue
system.mem_ctrls0.bytesReadDRAM              12638400                       # Total number of bytes read from DRAM
system.mem_ctrls0.bytesReadWrQ                   1600                       # Total number of bytes read from write queue
system.mem_ctrls0.bytesWritten                8046656                       # Total number of bytes written to DRAM
system.mem_ctrls0.bytesReadSys               12640000                       # Total read bytes from the system interface side
system.mem_ctrls0.bytesWrittenSys             8046656                       # Total written bytes from the system interface side
system.mem_ctrls0.servicedByWrQ                    25                       # Number of DRAM read bursts serviced by the write queue
system.mem_ctrls0.mergedWrBursts                    0                       # Number of DRAM write bursts merged with an existing one
system.mem_ctrls0.neitherReadNorWriteReqs            0                       # Number of requests that are neither read nor write
system.mem_ctrls0.perBankRdBursts::0            12101                       # Per bank write bursts
system.mem_ctrls0.perBankRdBursts::1            12206                       # Per bank write bursts
system.mem_ctrls0.perBankRdBursts::2            12078                       # Per bank write bursts
system.mem_ctrls0.perBankRdBursts::3            12437                       # Per bank write bursts
system.mem_ctrls0.perBankRdBursts::4            12232                       # Per bank write bursts
system.mem_ctrls0.perBankRdBursts::5            12285                       # Per bank write bursts
system.mem_ctrls0.perBankRdBursts::6            12497                       # Per bank write bursts
system.mem_ctrls0.perBankRdBursts::7            12658                       # Per bank write bursts
system.mem_ctrls0.perBankRdBursts::8            12446                       # Per bank write bursts
system.mem_ctrls0.perBankRdBursts::9            12804                       # Per bank write bursts
system.mem_ctrls0.perBankRdBursts::10           12436                       # Per bank write bursts
system.mem_ctrls0.perBankRdBursts::11           12728                       # Per bank write bursts
system.mem_ctrls0.perBankRdBursts::12           12278                       # Per bank write bursts
system.mem_ctrls0.perBankRdBursts::13           12059                       # Per bank write bursts
system.mem_ctrls0.perBankRdBursts::14           12316                       # Per bank write bursts
system.mem_ctrls0.perBankRdBursts::15           11914                       # Per bank write bursts
system.mem_ctrls0.perBankWrBursts::0             7797                       # Per bank write bursts
system.mem_ctrls0.perBankWrBursts::1             7658                       # Per bank write bursts
system.mem_ctrls0.perBankWrBursts::2             7798                       # Per bank write bursts
system.mem_ctrls0.perBankWrBursts::3             7840                       # Per bank write bursts
system.mem_ctrls0.perBankWrBursts::4             7822                       # Per bank write bursts
system.mem_ctrls0.perBankWrBursts::5             7899                       # Per bank write bursts
system.mem_ctrls0.perBankWrBursts::6             7997                       # Per bank write bursts
system.mem_ctrls0.perBankWrBursts::7             8014                       # Per bank write bursts
system.mem_ctrls0.perBankWrBursts::8             7935                       # Per bank write bursts
system.mem_ctrls0.perBankWrBursts::9             8083                       # Per bank write bursts
system.mem_ctrls0.perBankWrBursts::10            7892                       # Per bank write bursts
system.mem_ctrls0.perBankWrBursts::11            7921                       # Per bank write bursts
system.mem_ctrls0.perBankWrBursts::12            7762                       # Per bank write bursts
system.mem_ctrls0.perBankWrBursts::13            7817                       # Per bank write bursts
system.mem_ctrls0.perBankWrBursts::14            7863                       # Per bank write bursts
system.mem_ctrls0.perBankWrBursts::15            7631                       # Per bank write bursts
system.mem_ctrls0.numRdRetry                    72990                       # Number of times read queue was full causing retry
system.mem_ctrls0.numWrRetry                     6515                       # Number of times write queue was full causing retry
system.mem_ctrls0.totGap                  56743126500                       # Total gap between requests
system.mem_ctrls0.readPktSize::0                    0                       # Read request sizes (log2)
system.mem_ctrls0.readPktSize::1                    0                       # Read request sizes (log2)
system.mem_ctrls0.readPktSize::2                    0                       # Read request sizes (log2)
system.mem_ctrls0.readPktSize::3                    0                       # Read request sizes (log2)
system.mem_ctrls0.readPktSize::4                    0                       # Read request sizes (log2)
system.mem_ctrls0.readPktSize::5                    0                       # Read request sizes (log2)
system.mem_ctrls0.readPktSize::6               197500                       # Read request sizes (log2)
system.mem_ctrls0.writePktSize::0                   0                       # Write request sizes (log2)
system.mem_ctrls0.writePktSize::1                   0                       # Write request sizes (log2)
system.mem_ctrls0.writePktSize::2                   0                       # Write request sizes (log2)
system.mem_ctrls0.writePktSize::3                   0                       # Write request sizes (log2)
system.mem_ctrls0.writePktSize::4                   0                       # Write request sizes (log2)
system.mem_ctrls0.writePktSize::5                   0                       # Write request sizes (log2)
system.mem_ctrls0.writePktSize::6              125729                       # Write request sizes (log2)
system.mem_ctrls0.rdQLenPdf::0                  69036                       # What read queue length does an incoming req see
system.mem_ctrls0.rdQLenPdf::1                   2997                       # What read queue length does an incoming req see
system.mem_ctrls0.rdQLenPdf::2                   1865                       # What read queue length does an incoming req see
system.mem_ctrls0.rdQLenPdf::3                   1263                       # What read queue length does an incoming req see
system.mem_ctrls0.rdQLenPdf::4                   1299                       # What read queue length does an incoming req see
system.mem_ctrls0.rdQLenPdf::5                   1382                       # What read queue length does an incoming req see
system.mem_ctrls0.rdQLenPdf::6                   1454                       # What read queue length does an incoming req see
system.mem_ctrls0.rdQLenPdf::7                   1505                       # What read queue length does an incoming req see
system.mem_ctrls0.rdQLenPdf::8                   1529                       # What read queue length does an incoming req see
system.mem_ctrls0.rdQLenPdf::9                   1576                       # What read queue length does an incoming req see
system.mem_ctrls0.rdQLenPdf::10                  1515                       # What read queue length does an incoming req see
system.mem_ctrls0.rdQLenPdf::11                  1475                       # What read queue length does an incoming req see
system.mem_ctrls0.rdQLenPdf::12                  1490                       # What read queue length does an incoming req see
system.mem_ctrls0.rdQLenPdf::13                  1576                       # What read queue length does an incoming req see
system.mem_ctrls0.rdQLenPdf::14                  1577                       # What read queue length does an incoming req see
system.mem_ctrls0.rdQLenPdf::15                  1561                       # What read queue length does an incoming req see
system.mem_ctrls0.rdQLenPdf::16                  1615                       # What read queue length does an incoming req see
system.mem_ctrls0.rdQLenPdf::17                  1636                       # What read queue length does an incoming req see
system.mem_ctrls0.rdQLenPdf::18                  1735                       # What read queue length does an incoming req see
system.mem_ctrls0.rdQLenPdf::19                  1683                       # What read queue length does an incoming req see
system.mem_ctrls0.rdQLenPdf::20                  1749                       # What read queue length does an incoming req see
system.mem_ctrls0.rdQLenPdf::21                  1703                       # What read queue length does an incoming req see
system.mem_ctrls0.rdQLenPdf::22                  1760                       # What read queue length does an incoming req see
system.mem_ctrls0.rdQLenPdf::23                  1724                       # What read queue length does an incoming req see
system.mem_ctrls0.rdQLenPdf::24                  1809                       # What read queue length does an incoming req see
system.mem_ctrls0.rdQLenPdf::25                  1922                       # What read queue length does an incoming req see
system.mem_ctrls0.rdQLenPdf::26                  1943                       # What read queue length does an incoming req see
system.mem_ctrls0.rdQLenPdf::27                  1888                       # What read queue length does an incoming req see
system.mem_ctrls0.rdQLenPdf::28                  1998                       # What read queue length does an incoming req see
system.mem_ctrls0.rdQLenPdf::29                  2183                       # What read queue length does an incoming req see
system.mem_ctrls0.rdQLenPdf::30                  2525                       # What read queue length does an incoming req see
system.mem_ctrls0.rdQLenPdf::31                 76502                       # What read queue length does an incoming req see
system.mem_ctrls0.wrQLenPdf::0                  16876                       # What write queue length does an incoming req see
system.mem_ctrls0.wrQLenPdf::1                  18423                       # What write queue length does an incoming req see
system.mem_ctrls0.wrQLenPdf::2                  19087                       # What write queue length does an incoming req see
system.mem_ctrls0.wrQLenPdf::3                  19521                       # What write queue length does an incoming req see
system.mem_ctrls0.wrQLenPdf::4                  20045                       # What write queue length does an incoming req see
system.mem_ctrls0.wrQLenPdf::5                   8321                       # What write queue length does an incoming req see
system.mem_ctrls0.wrQLenPdf::6                   9496                       # What write queue length does an incoming req see
system.mem_ctrls0.wrQLenPdf::7                  13960                       # What write queue length does an incoming req see
system.mem_ctrls0.bytesPerActivate::samples        82709                       # Bytes accessed per row activation
system.mem_ctrls0.bytesPerActivate::mean   250.081998                       # Bytes accessed per row activation
system.mem_ctrls0.bytesPerActivate::gmean   178.370851                       # Bytes accessed per row activation
system.mem_ctrls0.bytesPerActivate::stdev   219.497377                       # Bytes accessed per row activation
system.mem_ctrls0.bytesPerActivate::0-127        24885     30.09%     30.09% # Bytes accessed per row activation
system.mem_ctrls0.bytesPerActivate::128-255        20949     25.33%     55.42% # Bytes accessed per row activation
system.mem_ctrls0.bytesPerActivate::256-383        21783     26.34%     81.75% # Bytes accessed per row activation
system.mem_ctrls0.bytesPerActivate::384-511         5251      6.35%     88.10% # Bytes accessed per row activation
system.mem_ctrls0.bytesPerActivate::512-639         3622      4.38%     92.48% # Bytes accessed per row activation
system.mem_ctrls0.bytesPerActivate::640-767         1952      2.36%     94.84% # Bytes accessed per row activation
system.mem_ctrls0.bytesPerActivate::768-895         1230      1.49%     96.33% # Bytes accessed per row activation
system.mem_ctrls0.bytesPerActivate::896-1023          817      0.99%     97.32% # Bytes accessed per row activation
system.mem_ctrls0.bytesPerActivate::1024-1151         2220      2.68%    100.00% # Bytes accessed per row activation
system.mem_ctrls0.bytesPerActivate::total        82709                       # Bytes accessed per row activation
system.mem_ctrls0.rdPerTurnAround::samples        17583                       # Reads before turning the bus around for writes
system.mem_ctrls0.rdPerTurnAround::mean     11.231019                       # Reads before turning the bus around for writes
system.mem_ctrls0.rdPerTurnAround::stdev    32.129050                       # Reads before turning the bus around for writes
system.mem_ctrls0.rdPerTurnAround::0-127        17575     99.95%     99.95% # Reads before turning the bus around for writes
system.mem_ctrls0.rdPerTurnAround::128-255            7      0.04%     99.99% # Reads before turning the bus around for writes
system.mem_ctrls0.rdPerTurnAround::3968-4095            1      0.01%    100.00% # Reads before turning the bus around for writes
system.mem_ctrls0.rdPerTurnAround::total        17583                       # Reads before turning the bus around for writes
system.mem_ctrls0.wrPerTurnAround::samples        17583                       # Writes before turning the bus around for reads
system.mem_ctrls0.wrPerTurnAround::mean      7.150600                       # Writes before turning the bus around for reads
system.mem_ctrls0.wrPerTurnAround::gmean     6.486855                       # Writes before turning the bus around for reads
system.mem_ctrls0.wrPerTurnAround::stdev     3.603099                       # Writes before turning the bus around for reads
system.mem_ctrls0.wrPerTurnAround::4-7          12633     71.85%     71.85% # Writes before turning the bus around for reads
system.mem_ctrls0.wrPerTurnAround::8-11          2056     11.69%     83.54% # Writes before turning the bus around for reads
system.mem_ctrls0.wrPerTurnAround::12-15         1773     10.08%     93.62% # Writes before turning the bus around for reads
system.mem_ctrls0.wrPerTurnAround::16-19         1121      6.38%    100.00% # Writes before turning the bus around for reads
system.mem_ctrls0.wrPerTurnAround::total        17583                       # Writes before turning the bus around for reads
system.mem_ctrls0.totQLat                 32777912908                       # Total ticks spent queuing
system.mem_ctrls0.totMemAccLat            36480569158                       # Total ticks spent from burst creation until serviced by the DRAM
system.mem_ctrls0.totBusLat                 987375000                       # Total ticks spent in databus transfers
system.mem_ctrls0.avgQLat                   165985.13                       # Average queueing delay per DRAM burst
system.mem_ctrls0.avgBusLat                   5000.00                       # Average bus latency per DRAM burst
system.mem_ctrls0.avgMemAccLat              184735.13                       # Average memory access latency per DRAM burst
system.mem_ctrls0.avgRdBW                      222.73                       # Average DRAM read bandwidth in MiByte/s
system.mem_ctrls0.avgWrBW                      141.81                       # Average achieved write bandwidth in MiByte/s
system.mem_ctrls0.avgRdBWSys                   222.76                       # Average system read bandwidth in MiByte/s
system.mem_ctrls0.avgWrBWSys                   141.81                       # Average system write bandwidth in MiByte/s
system.mem_ctrls0.peakBW                     12800.00                       # Theoretical peak bandwidth in MiByte/s
system.mem_ctrls0.busUtil                        2.85                       # Data bus utilization in percentage
system.mem_ctrls0.busUtilRead                    1.74                       # Data bus utilization in percentage for reads
system.mem_ctrls0.busUtilWrite                   1.11                       # Data bus utilization in percentage for writes
system.mem_ctrls0.avgRdQLen                      1.60                       # Average read queue length when enqueuing
system.mem_ctrls0.avgWrQLen                      2.93                       # Average write queue length when enqueuing
system.mem_ctrls0.readRowHits                  155268                       # Number of row buffer hits during reads
system.mem_ctrls0.writeRowHits                  85214                       # Number of row buffer hits during writes
system.mem_ctrls0.readRowHitRate                78.63                       # Row buffer hit rate for reads
system.mem_ctrls0.writeRowHitRate               67.78                       # Row buffer hit rate for writes
system.mem_ctrls0.avgGap                    175550.85                       # Average gap between requests
system.mem_ctrls0.pageHitRate                   74.41                       # Row buffer hit rate, read and write combined
system.mem_ctrls0.memoryStateTime::IDLE   11626583750                       # Time in different power states
system.mem_ctrls0.memoryStateTime::REF     1894620000                       # Time in different power states
system.mem_ctrls0.memoryStateTime::PRE_PDN            0                       # Time in different power states
system.mem_ctrls0.memoryStateTime::ACT    43217480500                       # Time in different power states
system.mem_ctrls0.memoryStateTime::ACT_PDN            0                       # Time in different power states
system.mem_ctrls0.actEnergy::0              315705600                       # Energy for activate commands per rank (pJ)
system.mem_ctrls0.actEnergy::1              309491280                       # Energy for activate commands per rank (pJ)
system.mem_ctrls0.preEnergy::0              172260000                       # Energy for precharge commands per rank (pJ)
system.mem_ctrls0.preEnergy::1              168869250                       # Energy for precharge commands per rank (pJ)
system.mem_ctrls0.readEnergy::0             768190800                       # Energy for read commands per rank (pJ)
system.mem_ctrls0.readEnergy::1             771763200                       # Energy for read commands per rank (pJ)
system.mem_ctrls0.writeEnergy::0            407067120                       # Energy for write commands per rank (pJ)
system.mem_ctrls0.writeEnergy::1            407592000                       # Energy for write commands per rank (pJ)
system.mem_ctrls0.refreshEnergy::0         3705876720                       # Energy for refresh commands per rank (pJ)
system.mem_ctrls0.refreshEnergy::1         3705876720                       # Energy for refresh commands per rank (pJ)
system.mem_ctrls0.actBackEnergy::0        22315768470                       # Energy for active background per rank (pJ)
system.mem_ctrls0.actBackEnergy::1        21793771305                       # Energy for active background per rank (pJ)
system.mem_ctrls0.preBackEnergy::0        14467967250                       # Energy for precharge background per rank (pJ)
system.mem_ctrls0.preBackEnergy::1        14925859500                       # Energy for precharge background per rank (pJ)
system.mem_ctrls0.totalEnergy::0          42152835960                       # Total energy per rank (pJ)
system.mem_ctrls0.totalEnergy::1          42083223255                       # Total energy per rank (pJ)
system.mem_ctrls0.averagePower::0          742.929558                       # Core power per rank (mW)
system.mem_ctrls0.averagePower::1          741.702658                       # Core power per rank (mW)
system.mem_ctrls1.bytes_read::ruby.dir_cntrl1     12413440                       # Number of bytes read from this memory
system.mem_ctrls1.bytes_read::total          12413440                       # Number of bytes read from this memory
system.mem_ctrls1.bytes_written::ruby.dir_cntrl1      7829632                       # Number of bytes written to this memory
system.mem_ctrls1.bytes_written::total        7829632                       # Number of bytes written to this memory
system.mem_ctrls1.num_reads::ruby.dir_cntrl1       193960                       # Number of read requests responded to by this memory
system.mem_ctrls1.num_reads::total             193960                       # Number of read requests responded to by this memory
system.mem_ctrls1.num_writes::ruby.dir_cntrl1       122338                       # Number of write requests responded to by this memory
system.mem_ctrls1.num_writes::total            122338                       # Number of write requests responded to by this memory
system.mem_ctrls1.bw_read::ruby.dir_cntrl1    218763571                       # Total read bandwidth from this memory (bytes/s)
system.mem_ctrls1.bw_read::total            218763571                       # Total read bandwidth from this memory (bytes/s)
system.mem_ctrls1.bw_write::ruby.dir_cntrl1    137982562                       # Write bandwidth from this memory (bytes/s)
system.mem_ctrls1.bw_write::total           137982562                       # Write bandwidth from this memory (bytes/s)
system.mem_ctrls1.bw_total::ruby.dir_cntrl1    356746133                       # Total bandwidth to/from this memory (bytes/s)
system.mem_ctrls1.bw_total::total           356746133                       # Total bandwidth to/from this memory (bytes/s)
system.mem_ctrls1.readReqs                     193962                       # Number of read requests accepted
system.mem_ctrls1.writeReqs                    122338                       # Number of write requests accepted
system.mem_ctrls1.readBursts                   193962                       # Number of DRAM read bursts, including those serviced by the write queue
system.mem_ctrls1.writeBursts                  122338                       # Number of DRAM write bursts, including those merged in the write queue
system.mem_ctrls1.bytesReadDRAM              12412032                       # Total number of bytes read from DRAM
system.mem_ctrls1.bytesReadWrQ                   1536                       # Total number of bytes read from write queue
system.mem_ctrls1.bytesWritten                7829440                       # Total number of bytes written to DRAM
system.mem_ctrls1.bytesReadSys               12413568                       # Total read bytes from the system interface side
system.mem_ctrls1.bytesWrittenSys             7829632                       # Total written bytes from the system interface side
system.mem_ctrls1.servicedByWrQ                    24                       # Number of DRAM read bursts serviced by the write queue
system.mem_ctrls1.mergedWrBursts                    0                       # Number of DRAM write bursts merged with an existing one
system.mem_ctrls1.neitherReadNorWriteReqs            0                       # Number of requests that are neither read nor write
system.mem_ctrls1.perBankRdBursts::0            11888                       # Per bank write bursts
system.mem_ctrls1.perBankRdBursts::1            11985                       # Per bank write bursts
system.mem_ctrls1.perBankRdBursts::2            11848                       # Per bank write bursts
system.mem_ctrls1.perBankRdBursts::3            12200                       # Per bank write bursts
system.mem_ctrls1.perBankRdBursts::4            12028                       # Per bank write bursts
system.mem_ctrls1.perBankRdBursts::5            12102                       # Per bank write bursts
system.mem_ctrls1.perBankRdBursts::6            12317                       # Per bank write bursts
system.mem_ctrls1.perBankRdBursts::7            12447                       # Per bank write bursts
system.mem_ctrls1.perBankRdBursts::8            12212                       # Per bank write bursts
system.mem_ctrls1.perBankRdBursts::9            12577                       # Per bank write bursts
system.mem_ctrls1.perBankRdBursts::10           12200                       # Per bank write bursts
system.mem_ctrls1.perBankRdBursts::11           12540                       # Per bank write bursts
system.mem_ctrls1.perBankRdBursts::12           12045                       # Per bank write bursts
system.mem_ctrls1.perBankRdBursts::13           11829                       # Per bank write bursts
system.mem_ctrls1.perBankRdBursts::14           12006                       # Per bank write bursts
system.mem_ctrls1.perBankRdBursts::15           11714                       # Per bank write bursts
system.mem_ctrls1.perBankWrBursts::0             7594                       # Per bank write bursts
system.mem_ctrls1.perBankWrBursts::1             7467                       # Per bank write bursts
system.mem_ctrls1.perBankWrBursts::2             7592                       # Per bank write bursts
system.mem_ctrls1.perBankWrBursts::3             7630                       # Per bank write bursts
system.mem_ctrls1.perBankWrBursts::4             7623                       # Per bank write bursts
system.mem_ctrls1.perBankWrBursts::5             7702                       # Per bank write bursts
system.mem_ctrls1.perBankWrBursts::6             7775                       # Per bank write bursts
system.mem_ctrls1.perBankWrBursts::7             7796                       # Per bank write bursts
system.mem_ctrls1.perBankWrBursts::8             7725                       # Per bank write bursts
system.mem_ctrls1.perBankWrBursts::9             7868                       # Per bank write bursts
system.mem_ctrls1.perBankWrBursts::10            7674                       # Per bank write bursts
system.mem_ctrls1.perBankWrBursts::11            7711                       # Per bank write bursts
system.mem_ctrls1.perBankWrBursts::12            7550                       # Per bank write bursts
system.mem_ctrls1.perBankWrBursts::13            7603                       # Per bank write bursts
system.mem_ctrls1.perBankWrBursts::14            7596                       # Per bank write bursts
system.mem_ctrls1.perBankWrBursts::15            7429                       # Per bank write bursts
system.mem_ctrls1.numRdRetry                    62052                       # Number of times read queue was full causing retry
system.mem_ctrls1.numWrRetry                     6180                       # Number of times write queue was full causing retry
system.mem_ctrls1.totGap                  56743002500                       # Total gap between requests
system.mem_ctrls1.readPktSize::0                    0                       # Read request sizes (log2)
system.mem_ctrls1.readPktSize::1                    0                       # Read request sizes (log2)
system.mem_ctrls1.readPktSize::2                    0                       # Read request sizes (log2)
system.mem_ctrls1.readPktSize::3                    0                       # Read request sizes (log2)
system.mem_ctrls1.readPktSize::4                    0                       # Read request sizes (log2)
system.mem_ctrls1.readPktSize::5                    0                       # Read request sizes (log2)
system.mem_ctrls1.readPktSize::6               193962                       # Read request sizes (log2)
system.mem_ctrls1.writePktSize::0                   0                       # Write request sizes (log2)
system.mem_ctrls1.writePktSize::1                   0                       # Write request sizes (log2)
system.mem_ctrls1.writePktSize::2                   0                       # Write request sizes (log2)
system.mem_ctrls1.writePktSize::3                   0                       # Write request sizes (log2)
system.mem_ctrls1.writePktSize::4                   0                       # Write request sizes (log2)
system.mem_ctrls1.writePktSize::5                   0                       # Write request sizes (log2)
system.mem_ctrls1.writePktSize::6              122338                       # Write request sizes (log2)
system.mem_ctrls1.rdQLenPdf::0                  67799                       # What read queue length does an incoming req see
system.mem_ctrls1.rdQLenPdf::1                   1730                       # What read queue length does an incoming req see
system.mem_ctrls1.rdQLenPdf::2                   1382                       # What read queue length does an incoming req see
system.mem_ctrls1.rdQLenPdf::3                   1479                       # What read queue length does an incoming req see
system.mem_ctrls1.rdQLenPdf::4                   1577                       # What read queue length does an incoming req see
system.mem_ctrls1.rdQLenPdf::5                   1726                       # What read queue length does an incoming req see
system.mem_ctrls1.rdQLenPdf::6                   1801                       # What read queue length does an incoming req see
system.mem_ctrls1.rdQLenPdf::7                   1826                       # What read queue length does an incoming req see
system.mem_ctrls1.rdQLenPdf::8                   1992                       # What read queue length does an incoming req see
system.mem_ctrls1.rdQLenPdf::9                   2058                       # What read queue length does an incoming req see
system.mem_ctrls1.rdQLenPdf::10                  2020                       # What read queue length does an incoming req see
system.mem_ctrls1.rdQLenPdf::11                  1979                       # What read queue length does an incoming req see
system.mem_ctrls1.rdQLenPdf::12                  1946                       # What read queue length does an incoming req see
system.mem_ctrls1.rdQLenPdf::13                  1999                       # What read queue length does an incoming req see
system.mem_ctrls1.rdQLenPdf::14                  1974                       # What read queue length does an incoming req see
system.mem_ctrls1.rdQLenPdf::15                  2034                       # What read queue length does an incoming req see
system.mem_ctrls1.rdQLenPdf::16                  2066                       # What read queue length does an incoming req see
system.mem_ctrls1.rdQLenPdf::17                  2170                       # What read queue length does an incoming req see
system.mem_ctrls1.rdQLenPdf::18                  2081                       # What read queue length does an incoming req see
system.mem_ctrls1.rdQLenPdf::19                  2057                       # What read queue length does an incoming req see
system.mem_ctrls1.rdQLenPdf::20                  1990                       # What read queue length does an incoming req see
system.mem_ctrls1.rdQLenPdf::21                  2007                       # What read queue length does an incoming req see
system.mem_ctrls1.rdQLenPdf::22                  2078                       # What read queue length does an incoming req see
system.mem_ctrls1.rdQLenPdf::23                  2147                       # What read queue length does an incoming req see
system.mem_ctrls1.rdQLenPdf::24                  2112                       # What read queue length does an incoming req see
system.mem_ctrls1.rdQLenPdf::25                  2091                       # What read queue length does an incoming req see
system.mem_ctrls1.rdQLenPdf::26                  2108                       # What read queue length does an incoming req see
system.mem_ctrls1.rdQLenPdf::27                  2262                       # What read queue length does an incoming req see
system.mem_ctrls1.rdQLenPdf::28                  2410                       # What read queue length does an incoming req see
system.mem_ctrls1.rdQLenPdf::29                  2485                       # What read queue length does an incoming req see
system.mem_ctrls1.rdQLenPdf::30                  2860                       # What read queue length does an incoming req see
system.mem_ctrls1.rdQLenPdf::31                 65692                       # What read queue length does an incoming req see
system.mem_ctrls1.wrQLenPdf::0                  16323                       # What write queue length does an incoming req see
system.mem_ctrls1.wrQLenPdf::1                  17919                       # What write queue length does an incoming req see
system.mem_ctrls1.wrQLenPdf::2                  18717                       # What write queue length does an incoming req see
system.mem_ctrls1.wrQLenPdf::3                  19129                       # What write queue length does an incoming req see
system.mem_ctrls1.wrQLenPdf::4                  19653                       # What write queue length does an incoming req see
system.mem_ctrls1.wrQLenPdf::5                   8267                       # What write queue length does an incoming req see
system.mem_ctrls1.wrQLenPdf::6                   9255                       # What write queue length does an incoming req see
system.mem_ctrls1.wrQLenPdf::7                  13075                       # What write queue length does an incoming req see
system.mem_ctrls1.bytesPerActivate::samples        75912                       # Bytes accessed per row activation
system.mem_ctrls1.bytesPerActivate::mean   266.632100                       # Bytes accessed per row activation
system.mem_ctrls1.bytesPerActivate::gmean   194.671348                       # Bytes accessed per row activation
system.mem_ctrls1.bytesPerActivate::stdev   222.114161                       # Bytes accessed per row activation
system.mem_ctrls1.bytesPerActivate::0-127        18763     24.72%     24.72% # Bytes accessed per row activation
system.mem_ctrls1.bytesPerActivate::128-255        20187     26.59%     51.31% # Bytes accessed per row activation
system.mem_ctrls1.bytesPerActivate::256-383        21821     28.75%     80.05% # Bytes accessed per row activation
system.mem_ctrls1.bytesPerActivate::384-511         5324      7.01%     87.07% # Bytes accessed per row activation
system.mem_ctrls1.bytesPerActivate::512-639         3700      4.87%     91.94% # Bytes accessed per row activation
system.mem_ctrls1.bytesPerActivate::640-767         1839      2.42%     94.36% # Bytes accessed per row activation
system.mem_ctrls1.bytesPerActivate::768-895         1234      1.63%     95.99% # Bytes accessed per row activation
system.mem_ctrls1.bytesPerActivate::896-1023          787      1.04%     97.03% # Bytes accessed per row activation
system.mem_ctrls1.bytesPerActivate::1024-1151         2257      2.97%    100.00% # Bytes accessed per row activation
system.mem_ctrls1.bytesPerActivate::total        75912                       # Bytes accessed per row activation
system.mem_ctrls1.rdPerTurnAround::samples        17084                       # Reads before turning the bus around for writes
system.mem_ctrls1.rdPerTurnAround::mean     11.351381                       # Reads before turning the bus around for writes
system.mem_ctrls1.rdPerTurnAround::stdev    26.510204                       # Reads before turning the bus around for writes
system.mem_ctrls1.rdPerTurnAround::0-127        17077     99.96%     99.96% # Reads before turning the bus around for writes
system.mem_ctrls1.rdPerTurnAround::128-255            5      0.03%     99.99% # Reads before turning the bus around for writes
system.mem_ctrls1.rdPerTurnAround::1152-1279            1      0.01%     99.99% # Reads before turning the bus around for writes
system.mem_ctrls1.rdPerTurnAround::2816-2943            1      0.01%    100.00% # Reads before turning the bus around for writes
system.mem_ctrls1.rdPerTurnAround::total        17084                       # Reads before turning the bus around for writes
system.mem_ctrls1.wrPerTurnAround::samples        17084                       # Writes before turning the bus around for reads
system.mem_ctrls1.wrPerTurnAround::mean      7.160794                       # Writes before turning the bus around for reads
system.mem_ctrls1.wrPerTurnAround::gmean     6.495174                       # Writes before turning the bus around for reads
system.mem_ctrls1.wrPerTurnAround::stdev     3.606089                       # Writes before turning the bus around for reads
system.mem_ctrls1.wrPerTurnAround::4-7          12162     71.19%     71.19% # Writes before turning the bus around for reads
system.mem_ctrls1.wrPerTurnAround::8-11          2135     12.50%     83.69% # Writes before turning the bus around for reads
system.mem_ctrls1.wrPerTurnAround::12-15         1678      9.82%     93.51% # Writes before turning the bus around for reads
system.mem_ctrls1.wrPerTurnAround::16-19         1109      6.49%    100.00% # Writes before turning the bus around for reads
system.mem_ctrls1.wrPerTurnAround::total        17084                       # Writes before turning the bus around for reads
system.mem_ctrls1.totQLat                 30757442674                       # Total ticks spent queuing
system.mem_ctrls1.totMemAccLat            34393780174                       # Total ticks spent from burst creation until serviced by the DRAM
system.mem_ctrls1.totBusLat                 969690000                       # Total ticks spent in databus transfers
system.mem_ctrls1.avgQLat                   158594.20                       # Average queueing delay per DRAM burst
system.mem_ctrls1.avgBusLat                   5000.00                       # Average bus latency per DRAM burst
system.mem_ctrls1.avgMemAccLat              177344.20                       # Average memory access latency per DRAM burst
system.mem_ctrls1.avgRdBW                      218.74                       # Average DRAM read bandwidth in MiByte/s
system.mem_ctrls1.avgWrBW                      137.98                       # Average achieved write bandwidth in MiByte/s
system.mem_ctrls1.avgRdBWSys                   218.77                       # Average system read bandwidth in MiByte/s
system.mem_ctrls1.avgWrBWSys                   137.98                       # Average system write bandwidth in MiByte/s
system.mem_ctrls1.peakBW                     12800.00                       # Theoretical peak bandwidth in MiByte/s
system.mem_ctrls1.busUtil                        2.79                       # Data bus utilization in percentage
system.mem_ctrls1.busUtilRead                    1.71                       # Data bus utilization in percentage for reads
system.mem_ctrls1.busUtilWrite                   1.08                       # Data bus utilization in percentage for writes
system.mem_ctrls1.avgRdQLen                      1.57                       # Average read queue length when enqueuing
system.mem_ctrls1.avgWrQLen                      2.97                       # Average write queue length when enqueuing
system.mem_ctrls1.readRowHits                  153855                       # Number of row buffer hits during reads
system.mem_ctrls1.writeRowHits                  86497                       # Number of row buffer hits during writes
system.mem_ctrls1.readRowHitRate                79.33                       # Row buffer hit rate for reads
system.mem_ctrls1.writeRowHitRate               70.70                       # Row buffer hit rate for writes
system.mem_ctrls1.avgGap                    179396.15                       # Average gap between requests
system.mem_ctrls1.pageHitRate                   75.99                       # Row buffer hit rate, read and write combined
system.mem_ctrls1.memoryStateTime::IDLE   11892890500                       # Time in different power states
system.mem_ctrls1.memoryStateTime::REF     1894620000                       # Time in different power states
system.mem_ctrls1.memoryStateTime::PRE_PDN            0                       # Time in different power states
system.mem_ctrls1.memoryStateTime::ACT    42951167000                       # Time in different power states
system.mem_ctrls1.memoryStateTime::ACT_PDN            0                       # Time in different power states
system.mem_ctrls1.actEnergy::0              290666880                       # Energy for activate commands per rank (pJ)
system.mem_ctrls1.actEnergy::1              283182480                       # Energy for activate commands per rank (pJ)
system.mem_ctrls1.preEnergy::0              158598000                       # Energy for precharge commands per rank (pJ)
system.mem_ctrls1.preEnergy::1              154514250                       # Energy for precharge commands per rank (pJ)
system.mem_ctrls1.readEnergy::0             755102400                       # Energy for read commands per rank (pJ)
system.mem_ctrls1.readEnergy::1             757270800                       # Energy for read commands per rank (pJ)
system.mem_ctrls1.writeEnergy::0            396414000                       # Energy for write commands per rank (pJ)
system.mem_ctrls1.writeEnergy::1            396284400                       # Energy for write commands per rank (pJ)
system.mem_ctrls1.refreshEnergy::0         3705876720                       # Energy for refresh commands per rank (pJ)
system.mem_ctrls1.refreshEnergy::1         3705876720                       # Energy for refresh commands per rank (pJ)
system.mem_ctrls1.actBackEnergy::0        22093804485                       # Energy for active background per rank (pJ)
system.mem_ctrls1.actBackEnergy::1        21535563015                       # Energy for active background per rank (pJ)
system.mem_ctrls1.preBackEnergy::0        14662668000                       # Energy for precharge background per rank (pJ)
system.mem_ctrls1.preBackEnergy::1        15152353500                       # Energy for precharge background per rank (pJ)
system.mem_ctrls1.totalEnergy::0          42063130485                       # Total energy per rank (pJ)
system.mem_ctrls1.totalEnergy::1          41985045165                       # Total energy per rank (pJ)
system.mem_ctrls1.averagePower::0          741.348627                       # Core power per rank (mW)
system.mem_ctrls1.averagePower::1          739.972400                       # Core power per rank (mW)
system.mem_ctrls2.bytes_read::ruby.dir_cntrl2     12413440                       # Number of bytes read from this memory
system.mem_ctrls2.bytes_read::total          12413440                       # Number of bytes read from this memory
system.mem_ctrls2.bytes_written::ruby.dir_cntrl2      7829568                       # Number of bytes written to this memory
system.mem_ctrls2.bytes_written::total        7829568                       # Number of bytes written to this memory
system.mem_ctrls2.num_reads::ruby.dir_cntrl2       193960                       # Number of read requests responded to by this memory
system.mem_ctrls2.num_reads::total             193960                       # Number of read requests responded to by this memory
system.mem_ctrls2.num_writes::ruby.dir_cntrl2       122337                       # Number of write requests responded to by this memory
system.mem_ctrls2.num_writes::total            122337                       # Number of write requests responded to by this memory
system.mem_ctrls2.bw_read::ruby.dir_cntrl2    218763571                       # Total read bandwidth from this memory (bytes/s)
system.mem_ctrls2.bw_read::total            218763571                       # Total read bandwidth from this memory (bytes/s)
system.mem_ctrls2.bw_write::ruby.dir_cntrl2    137981434                       # Write bandwidth from this memory (bytes/s)
system.mem_ctrls2.bw_write::total           137981434                       # Write bandwidth from this memory (bytes/s)
system.mem_ctrls2.bw_total::ruby.dir_cntrl2    356745005                       # Total bandwidth to/from this memory (bytes/s)
system.mem_ctrls2.bw_total::total           356745005                       # Total bandwidth to/from this memory (bytes/s)
system.mem_ctrls2.readReqs                     193961                       # Number of read requests accepted
system.mem_ctrls2.writeReqs                    122337                       # Number of write requests accepted
system.mem_ctrls2.readBursts                   193961                       # Number of DRAM read bursts, including those serviced by the write queue
system.mem_ctrls2.writeBursts                  122337                       # Number of DRAM write bursts, including those merged in the write queue
system.mem_ctrls2.bytesReadDRAM              12412352                       # Total number of bytes read from DRAM
system.mem_ctrls2.bytesReadWrQ                   1152                       # Total number of bytes read from write queue
system.mem_ctrls2.bytesWritten                7829376                       # Total number of bytes written to DRAM
system.mem_ctrls2.bytesReadSys               12413504                       # Total read bytes from the system interface side
system.mem_ctrls2.bytesWrittenSys             7829568                       # Total written bytes from the system interface side
system.mem_ctrls2.servicedByWrQ                    18                       # Number of DRAM read bursts serviced by the write queue
system.mem_ctrls2.mergedWrBursts                    0                       # Number of DRAM write bursts merged with an existing one
system.mem_ctrls2.neitherReadNorWriteReqs            0                       # Number of requests that are neither read nor write
system.mem_ctrls2.perBankRdBursts::0            11882                       # Per bank write bursts
system.mem_ctrls2.perBankRdBursts::1            12013                       # Per bank write bursts
system.mem_ctrls2.perBankRdBursts::2            11872                       # Per bank write bursts
system.mem_ctrls2.perBankRdBursts::3            12243                       # Per bank write bursts
system.mem_ctrls2.perBankRdBursts::4            12031                       # Per bank write bursts
system.mem_ctrls2.perBankRdBursts::5            12083                       # Per bank write bursts
system.mem_ctrls2.perBankRdBursts::6            12282                       # Per bank write bursts
system.mem_ctrls2.perBankRdBursts::7            12444                       # Per bank write bursts
system.mem_ctrls2.perBankRdBursts::8            12203                       # Per bank write bursts
system.mem_ctrls2.perBankRdBursts::9            12559                       # Per bank write bursts
system.mem_ctrls2.perBankRdBursts::10           12209                       # Per bank write bursts
system.mem_ctrls2.perBankRdBursts::11           12581                       # Per bank write bursts
system.mem_ctrls2.perBankRdBursts::12           12045                       # Per bank write bursts
system.mem_ctrls2.perBankRdBursts::13           11791                       # Per bank write bursts
system.mem_ctrls2.perBankRdBursts::14           11991                       # Per bank write bursts
system.mem_ctrls2.perBankRdBursts::15           11714                       # Per bank write bursts
system.mem_ctrls2.perBankWrBursts::0             7585                       # Per bank write bursts
system.mem_ctrls2.perBankWrBursts::1             7465                       # Per bank write bursts
system.mem_ctrls2.perBankWrBursts::2             7592                       # Per bank write bursts
system.mem_ctrls2.perBankWrBursts::3             7640                       # Per bank write bursts
system.mem_ctrls2.perBankWrBursts::4             7618                       # Per bank write bursts
system.mem_ctrls2.perBankWrBursts::5             7687                       # Per bank write bursts
system.mem_ctrls2.perBankWrBursts::6             7768                       # Per bank write bursts
system.mem_ctrls2.perBankWrBursts::7             7805                       # Per bank write bursts
system.mem_ctrls2.perBankWrBursts::8             7727                       # Per bank write bursts
system.mem_ctrls2.perBankWrBursts::9             7869                       # Per bank write bursts
system.mem_ctrls2.perBankWrBursts::10            7674                       # Per bank write bursts
system.mem_ctrls2.perBankWrBursts::11            7722                       # Per bank write bursts
system.mem_ctrls2.perBankWrBursts::12            7558                       # Per bank write bursts
system.mem_ctrls2.perBankWrBursts::13            7593                       # Per bank write bursts
system.mem_ctrls2.perBankWrBursts::14            7599                       # Per bank write bursts
system.mem_ctrls2.perBankWrBursts::15            7432                       # Per bank write bursts
system.mem_ctrls2.numRdRetry                    64616                       # Number of times read queue was full causing retry
system.mem_ctrls2.numWrRetry                     6175                       # Number of times write queue was full causing retry
system.mem_ctrls2.totGap                  56743562000                       # Total gap between requests
system.mem_ctrls2.readPktSize::0                    0                       # Read request sizes (log2)
system.mem_ctrls2.readPktSize::1                    0                       # Read request sizes (log2)
system.mem_ctrls2.readPktSize::2                    0                       # Read request sizes (log2)
system.mem_ctrls2.readPktSize::3                    0                       # Read request sizes (log2)
system.mem_ctrls2.readPktSize::4                    0                       # Read request sizes (log2)
system.mem_ctrls2.readPktSize::5                    0                       # Read request sizes (log2)
system.mem_ctrls2.readPktSize::6               193961                       # Read request sizes (log2)
system.mem_ctrls2.writePktSize::0                   0                       # Write request sizes (log2)
system.mem_ctrls2.writePktSize::1                   0                       # Write request sizes (log2)
system.mem_ctrls2.writePktSize::2                   0                       # Write request sizes (log2)
system.mem_ctrls2.writePktSize::3                   0                       # Write request sizes (log2)
system.mem_ctrls2.writePktSize::4                   0                       # Write request sizes (log2)
system.mem_ctrls2.writePktSize::5                   0                       # Write request sizes (log2)
system.mem_ctrls2.writePktSize::6              122337                       # Write request sizes (log2)
system.mem_ctrls2.rdQLenPdf::0                  67873                       # What read queue length does an incoming req see
system.mem_ctrls2.rdQLenPdf::1                   1641                       # What read queue length does an incoming req see
system.mem_ctrls2.rdQLenPdf::2                   1352                       # What read queue length does an incoming req see
system.mem_ctrls2.rdQLenPdf::3                   1424                       # What read queue length does an incoming req see
system.mem_ctrls2.rdQLenPdf::4                   1423                       # What read queue length does an incoming req see
system.mem_ctrls2.rdQLenPdf::5                   1543                       # What read queue length does an incoming req see
system.mem_ctrls2.rdQLenPdf::6                   1653                       # What read queue length does an incoming req see
system.mem_ctrls2.rdQLenPdf::7                   1730                       # What read queue length does an incoming req see
system.mem_ctrls2.rdQLenPdf::8                   1773                       # What read queue length does an incoming req see
system.mem_ctrls2.rdQLenPdf::9                   1750                       # What read queue length does an incoming req see
system.mem_ctrls2.rdQLenPdf::10                  1803                       # What read queue length does an incoming req see
system.mem_ctrls2.rdQLenPdf::11                  1837                       # What read queue length does an incoming req see
system.mem_ctrls2.rdQLenPdf::12                  1833                       # What read queue length does an incoming req see
system.mem_ctrls2.rdQLenPdf::13                  1851                       # What read queue length does an incoming req see
system.mem_ctrls2.rdQLenPdf::14                  1830                       # What read queue length does an incoming req see
system.mem_ctrls2.rdQLenPdf::15                  1768                       # What read queue length does an incoming req see
system.mem_ctrls2.rdQLenPdf::16                  1869                       # What read queue length does an incoming req see
system.mem_ctrls2.rdQLenPdf::17                  1958                       # What read queue length does an incoming req see
system.mem_ctrls2.rdQLenPdf::18                  2019                       # What read queue length does an incoming req see
system.mem_ctrls2.rdQLenPdf::19                  2038                       # What read queue length does an incoming req see
system.mem_ctrls2.rdQLenPdf::20                  2055                       # What read queue length does an incoming req see
system.mem_ctrls2.rdQLenPdf::21                  2092                       # What read queue length does an incoming req see
system.mem_ctrls2.rdQLenPdf::22                  2060                       # What read queue length does an incoming req see
system.mem_ctrls2.rdQLenPdf::23                  2053                       # What read queue length does an incoming req see
system.mem_ctrls2.rdQLenPdf::24                  2124                       # What read queue length does an incoming req see
system.mem_ctrls2.rdQLenPdf::25                  2041                       # What read queue length does an incoming req see
system.mem_ctrls2.rdQLenPdf::26                  2078                       # What read queue length does an incoming req see
system.mem_ctrls2.rdQLenPdf::27                  2320                       # What read queue length does an incoming req see
system.mem_ctrls2.rdQLenPdf::28                  2370                       # What read queue length does an incoming req see
system.mem_ctrls2.rdQLenPdf::29                  2580                       # What read queue length does an incoming req see
system.mem_ctrls2.rdQLenPdf::30                  2876                       # What read queue length does an incoming req see
system.mem_ctrls2.rdQLenPdf::31                 68326                       # What read queue length does an incoming req see
system.mem_ctrls2.wrQLenPdf::0                  16327                       # What write queue length does an incoming req see
system.mem_ctrls2.wrQLenPdf::1                  17909                       # What write queue length does an incoming req see
system.mem_ctrls2.wrQLenPdf::2                  18604                       # What write queue length does an incoming req see
system.mem_ctrls2.wrQLenPdf::3                  19047                       # What write queue length does an incoming req see
system.mem_ctrls2.wrQLenPdf::4                  19627                       # What write queue length does an incoming req see
system.mem_ctrls2.wrQLenPdf::5                   8370                       # What write queue length does an incoming req see
system.mem_ctrls2.wrQLenPdf::6                   9390                       # What write queue length does an incoming req see
system.mem_ctrls2.wrQLenPdf::7                  13063                       # What write queue length does an incoming req see
system.mem_ctrls2.bytesPerActivate::samples        75511                       # Bytes accessed per row activation
system.mem_ctrls2.bytesPerActivate::mean   268.058217                       # Bytes accessed per row activation
system.mem_ctrls2.bytesPerActivate::gmean   195.999989                       # Bytes accessed per row activation
system.mem_ctrls2.bytesPerActivate::stdev   222.343901                       # Bytes accessed per row activation
system.mem_ctrls2.bytesPerActivate::0-127        18430     24.41%     24.41% # Bytes accessed per row activation
system.mem_ctrls2.bytesPerActivate::128-255        19852     26.29%     50.70% # Bytes accessed per row activation
system.mem_ctrls2.bytesPerActivate::256-383        22042     29.19%     79.89% # Bytes accessed per row activation
system.mem_ctrls2.bytesPerActivate::384-511         5300      7.02%     86.91% # Bytes accessed per row activation
system.mem_ctrls2.bytesPerActivate::512-639         3775      5.00%     91.91% # Bytes accessed per row activation
system.mem_ctrls2.bytesPerActivate::640-767         1843      2.44%     94.35% # Bytes accessed per row activation
system.mem_ctrls2.bytesPerActivate::768-895         1218      1.61%     95.96% # Bytes accessed per row activation
system.mem_ctrls2.bytesPerActivate::896-1023          757      1.00%     96.96% # Bytes accessed per row activation
system.mem_ctrls2.bytesPerActivate::1024-1151         2294      3.04%    100.00% # Bytes accessed per row activation
system.mem_ctrls2.bytesPerActivate::total        75511                       # Bytes accessed per row activation
system.mem_ctrls2.rdPerTurnAround::samples        17068                       # Reads before turning the bus around for writes
system.mem_ctrls2.rdPerTurnAround::mean     11.362315                       # Reads before turning the bus around for writes
system.mem_ctrls2.rdPerTurnAround::stdev    26.554813                       # Reads before turning the bus around for writes
system.mem_ctrls2.rdPerTurnAround::0-127        17063     99.97%     99.97% # Reads before turning the bus around for writes
system.mem_ctrls2.rdPerTurnAround::128-255            3      0.02%     99.99% # Reads before turning the bus around for writes
system.mem_ctrls2.rdPerTurnAround::1152-1279            1      0.01%     99.99% # Reads before turning the bus around for writes
system.mem_ctrls2.rdPerTurnAround::2816-2943            1      0.01%    100.00% # Reads before turning the bus around for writes
system.mem_ctrls2.rdPerTurnAround::total        17068                       # Reads before turning the bus around for writes
system.mem_ctrls2.wrPerTurnAround::samples        17068                       # Writes before turning the bus around for reads
system.mem_ctrls2.wrPerTurnAround::mean      7.167448                       # Writes before turning the bus around for reads
system.mem_ctrls2.wrPerTurnAround::gmean     6.500896                       # Writes before turning the bus around for reads
system.mem_ctrls2.wrPerTurnAround::stdev     3.603751                       # Writes before turning the bus around for reads
system.mem_ctrls2.wrPerTurnAround::4-7          12113     70.97%     70.97% # Writes before turning the bus around for reads
system.mem_ctrls2.wrPerTurnAround::8-11          2139     12.53%     83.50% # Writes before turning the bus around for reads
system.mem_ctrls2.wrPerTurnAround::12-15         1723     10.09%     93.60% # Writes before turning the bus around for reads
system.mem_ctrls2.wrPerTurnAround::16-19         1093      6.40%    100.00% # Writes before turning the bus around for reads
system.mem_ctrls2.wrPerTurnAround::total        17068                       # Writes before turning the bus around for reads
system.mem_ctrls2.totQLat                 31402023865                       # Total ticks spent queuing
system.mem_ctrls2.totMemAccLat            35038455115                       # Total ticks spent from burst creation until serviced by the DRAM
system.mem_ctrls2.totBusLat                 969715000                       # Total ticks spent in databus transfers
system.mem_ctrls2.avgQLat                   161913.67                       # Average queueing delay per DRAM burst
system.mem_ctrls2.avgBusLat                   5000.00                       # Average bus latency per DRAM burst
system.mem_ctrls2.avgMemAccLat              180663.67                       # Average memory access latency per DRAM burst
system.mem_ctrls2.avgRdBW                      218.74                       # Average DRAM read bandwidth in MiByte/s
system.mem_ctrls2.avgWrBW                      137.98                       # Average achieved write bandwidth in MiByte/s
system.mem_ctrls2.avgRdBWSys                   218.76                       # Average system read bandwidth in MiByte/s
system.mem_ctrls2.avgWrBWSys                   137.98                       # Average system write bandwidth in MiByte/s
system.mem_ctrls2.peakBW                     12800.00                       # Theoretical peak bandwidth in MiByte/s
system.mem_ctrls2.busUtil                        2.79                       # Data bus utilization in percentage
system.mem_ctrls2.busUtilRead                    1.71                       # Data bus utilization in percentage for reads
system.mem_ctrls2.busUtilWrite                   1.08                       # Data bus utilization in percentage for writes
system.mem_ctrls2.avgRdQLen                      1.58                       # Average read queue length when enqueuing
system.mem_ctrls2.avgWrQLen                      2.93                       # Average write queue length when enqueuing
system.mem_ctrls2.readRowHits                  154077                       # Number of row buffer hits during reads
system.mem_ctrls2.writeRowHits                  86683                       # Number of row buffer hits during writes
system.mem_ctrls2.readRowHitRate                79.44                       # Row buffer hit rate for reads
system.mem_ctrls2.writeRowHitRate               70.86                       # Row buffer hit rate for writes
system.mem_ctrls2.avgGap                    179399.05                       # Average gap between requests
system.mem_ctrls2.pageHitRate                   76.12                       # Row buffer hit rate, read and write combined
system.mem_ctrls2.memoryStateTime::IDLE   11875004250                       # Time in different power states
system.mem_ctrls2.memoryStateTime::REF     1894620000                       # Time in different power states
system.mem_ctrls2.memoryStateTime::PRE_PDN            0                       # Time in different power states
system.mem_ctrls2.memoryStateTime::ACT    42969053250                       # Time in different power states
system.mem_ctrls2.memoryStateTime::ACT_PDN            0                       # Time in different power states
system.mem_ctrls2.actEnergy::0              287287560                       # Energy for activate commands per rank (pJ)
system.mem_ctrls2.actEnergy::1              283492440                       # Energy for activate commands per rank (pJ)
system.mem_ctrls2.preEnergy::0              156754125                       # Energy for precharge commands per rank (pJ)
system.mem_ctrls2.preEnergy::1              154683375                       # Energy for precharge commands per rank (pJ)
system.mem_ctrls2.readEnergy::0             755375400                       # Energy for read commands per rank (pJ)
system.mem_ctrls2.readEnergy::1             757044600                       # Energy for read commands per rank (pJ)
system.mem_ctrls2.writeEnergy::0            396277920                       # Energy for write commands per rank (pJ)
system.mem_ctrls2.writeEnergy::1            396407520                       # Energy for write commands per rank (pJ)
system.mem_ctrls2.refreshEnergy::0         3705876720                       # Energy for refresh commands per rank (pJ)
system.mem_ctrls2.refreshEnergy::1         3705876720                       # Energy for refresh commands per rank (pJ)
system.mem_ctrls2.actBackEnergy::0        21844518120                       # Energy for active background per rank (pJ)
system.mem_ctrls2.actBackEnergy::1        21342969990                       # Energy for active background per rank (pJ)
system.mem_ctrls2.preBackEnergy::0        14881340250                       # Energy for precharge background per rank (pJ)
system.mem_ctrls2.preBackEnergy::1        15321294750                       # Energy for precharge background per rank (pJ)
system.mem_ctrls2.totalEnergy::0          42027430095                       # Total energy per rank (pJ)
system.mem_ctrls2.totalEnergy::1          41961769395                       # Total energy per rank (pJ)
system.mem_ctrls2.averagePower::0          740.719420                       # Core power per rank (mW)
system.mem_ctrls2.averagePower::1          739.562172                       # Core power per rank (mW)
system.mem_ctrls3.bytes_read::ruby.dir_cntrl3     12392640                       # Number of bytes read from this memory
system.mem_ctrls3.bytes_read::total          12392640                       # Number of bytes read from this memory
system.mem_ctrls3.bytes_written::ruby.dir_cntrl3      7827968                       # Number of bytes written to this memory
system.mem_ctrls3.bytes_written::total        7827968                       # Number of bytes written to this memory
system.mem_ctrls3.num_reads::ruby.dir_cntrl3       193635                       # Number of read requests responded to by this memory
system.mem_ctrls3.num_reads::total             193635                       # Number of read requests responded to by this memory
system.mem_ctrls3.num_writes::ruby.dir_cntrl3       122312                       # Number of write requests responded to by this memory
system.mem_ctrls3.num_writes::total            122312                       # Number of write requests responded to by this memory
system.mem_ctrls3.bw_read::ruby.dir_cntrl3    218397010                       # Total read bandwidth from this memory (bytes/s)
system.mem_ctrls3.bw_read::total            218397010                       # Total read bandwidth from this memory (bytes/s)
system.mem_ctrls3.bw_write::ruby.dir_cntrl3    137953237                       # Write bandwidth from this memory (bytes/s)
system.mem_ctrls3.bw_write::total           137953237                       # Write bandwidth from this memory (bytes/s)
system.mem_ctrls3.bw_total::ruby.dir_cntrl3    356350247                       # Total bandwidth to/from this memory (bytes/s)
system.mem_ctrls3.bw_total::total           356350247                       # Total bandwidth to/from this memory (bytes/s)
system.mem_ctrls3.readReqs                     193635                       # Number of read requests accepted
system.mem_ctrls3.writeReqs                    122312                       # Number of write requests accepted
system.mem_ctrls3.readBursts                   193635                       # Number of DRAM read bursts, including those serviced by the write queue
system.mem_ctrls3.writeBursts                  122312                       # Number of DRAM write bursts, including those merged in the write queue
system.mem_ctrls3.bytesReadDRAM              12391808                       # Total number of bytes read from DRAM
system.mem_ctrls3.bytesReadWrQ                    832                       # Total number of bytes read from write queue
system.mem_ctrls3.bytesWritten                7827776                       # Total number of bytes written to DRAM
system.mem_ctrls3.bytesReadSys               12392640                       # Total read bytes from the system interface side
system.mem_ctrls3.bytesWrittenSys             7827968                       # Total written bytes from the system interface side
system.mem_ctrls3.servicedByWrQ                    13                       # Number of DRAM read bursts serviced by the write queue
system.mem_ctrls3.mergedWrBursts                    0                       # Number of DRAM write bursts merged with an existing one
system.mem_ctrls3.neitherReadNorWriteReqs            0                       # Number of requests that are neither read nor write
system.mem_ctrls3.perBankRdBursts::0            11873                       # Per bank write bursts
system.mem_ctrls3.perBankRdBursts::1            11968                       # Per bank write bursts
system.mem_ctrls3.perBankRdBursts::2            11811                       # Per bank write bursts
system.mem_ctrls3.perBankRdBursts::3            12199                       # Per bank write bursts
system.mem_ctrls3.perBankRdBursts::4            11981                       # Per bank write bursts
system.mem_ctrls3.perBankRdBursts::5            12059                       # Per bank write bursts
system.mem_ctrls3.perBankRdBursts::6            12262                       # Per bank write bursts
system.mem_ctrls3.perBankRdBursts::7            12433                       # Per bank write bursts
system.mem_ctrls3.perBankRdBursts::8            12204                       # Per bank write bursts
system.mem_ctrls3.perBankRdBursts::9            12552                       # Per bank write bursts
system.mem_ctrls3.perBankRdBursts::10           12232                       # Per bank write bursts
system.mem_ctrls3.perBankRdBursts::11           12511                       # Per bank write bursts
system.mem_ctrls3.perBankRdBursts::12           12035                       # Per bank write bursts
system.mem_ctrls3.perBankRdBursts::13           11787                       # Per bank write bursts
system.mem_ctrls3.perBankRdBursts::14           12010                       # Per bank write bursts
system.mem_ctrls3.perBankRdBursts::15           11705                       # Per bank write bursts
system.mem_ctrls3.perBankWrBursts::0             7591                       # Per bank write bursts
system.mem_ctrls3.perBankWrBursts::1             7453                       # Per bank write bursts
system.mem_ctrls3.perBankWrBursts::2             7590                       # Per bank write bursts
system.mem_ctrls3.perBankWrBursts::3             7628                       # Per bank write bursts
system.mem_ctrls3.perBankWrBursts::4             7616                       # Per bank write bursts
system.mem_ctrls3.perBankWrBursts::5             7688                       # Per bank write bursts
system.mem_ctrls3.perBankWrBursts::6             7769                       # Per bank write bursts
system.mem_ctrls3.perBankWrBursts::7             7795                       # Per bank write bursts
system.mem_ctrls3.perBankWrBursts::8             7727                       # Per bank write bursts
system.mem_ctrls3.perBankWrBursts::9             7870                       # Per bank write bursts
system.mem_ctrls3.perBankWrBursts::10            7677                       # Per bank write bursts
system.mem_ctrls3.perBankWrBursts::11            7730                       # Per bank write bursts
system.mem_ctrls3.perBankWrBursts::12            7555                       # Per bank write bursts
system.mem_ctrls3.perBankWrBursts::13            7600                       # Per bank write bursts
system.mem_ctrls3.perBankWrBursts::14            7596                       # Per bank write bursts
system.mem_ctrls3.perBankWrBursts::15            7424                       # Per bank write bursts
system.mem_ctrls3.numRdRetry                    58248                       # Number of times read queue was full causing retry
system.mem_ctrls3.numWrRetry                     6208                       # Number of times write queue was full causing retry
system.mem_ctrls3.totGap                  56742574500                       # Total gap between requests
system.mem_ctrls3.readPktSize::0                    0                       # Read request sizes (log2)
system.mem_ctrls3.readPktSize::1                    0                       # Read request sizes (log2)
system.mem_ctrls3.readPktSize::2                    0                       # Read request sizes (log2)
system.mem_ctrls3.readPktSize::3                    0                       # Read request sizes (log2)
system.mem_ctrls3.readPktSize::4                    0                       # Read request sizes (log2)
system.mem_ctrls3.readPktSize::5                    0                       # Read request sizes (log2)
system.mem_ctrls3.readPktSize::6               193635                       # Read request sizes (log2)
system.mem_ctrls3.writePktSize::0                   0                       # Write request sizes (log2)
system.mem_ctrls3.writePktSize::1                   0                       # Write request sizes (log2)
system.mem_ctrls3.writePktSize::2                   0                       # Write request sizes (log2)
system.mem_ctrls3.writePktSize::3                   0                       # Write request sizes (log2)
system.mem_ctrls3.writePktSize::4                   0                       # Write request sizes (log2)
system.mem_ctrls3.writePktSize::5                   0                       # Write request sizes (log2)
system.mem_ctrls3.writePktSize::6              122312                       # Write request sizes (log2)
system.mem_ctrls3.rdQLenPdf::0                  67552                       # What read queue length does an incoming req see
system.mem_ctrls3.rdQLenPdf::1                   1703                       # What read queue length does an incoming req see
system.mem_ctrls3.rdQLenPdf::2                   1386                       # What read queue length does an incoming req see
system.mem_ctrls3.rdQLenPdf::3                   1432                       # What read queue length does an incoming req see
system.mem_ctrls3.rdQLenPdf::4                   1580                       # What read queue length does an incoming req see
system.mem_ctrls3.rdQLenPdf::5                   1705                       # What read queue length does an incoming req see
system.mem_ctrls3.rdQLenPdf::6                   1812                       # What read queue length does an incoming req see
system.mem_ctrls3.rdQLenPdf::7                   1913                       # What read queue length does an incoming req see
system.mem_ctrls3.rdQLenPdf::8                   2008                       # What read queue length does an incoming req see
system.mem_ctrls3.rdQLenPdf::9                   1993                       # What read queue length does an incoming req see
system.mem_ctrls3.rdQLenPdf::10                  1973                       # What read queue length does an incoming req see
system.mem_ctrls3.rdQLenPdf::11                  2045                       # What read queue length does an incoming req see
system.mem_ctrls3.rdQLenPdf::12                  1985                       # What read queue length does an incoming req see
system.mem_ctrls3.rdQLenPdf::13                  2031                       # What read queue length does an incoming req see
system.mem_ctrls3.rdQLenPdf::14                  1997                       # What read queue length does an incoming req see
system.mem_ctrls3.rdQLenPdf::15                  2076                       # What read queue length does an incoming req see
system.mem_ctrls3.rdQLenPdf::16                  2139                       # What read queue length does an incoming req see
system.mem_ctrls3.rdQLenPdf::17                  2133                       # What read queue length does an incoming req see
system.mem_ctrls3.rdQLenPdf::18                  2166                       # What read queue length does an incoming req see
system.mem_ctrls3.rdQLenPdf::19                  2137                       # What read queue length does an incoming req see
system.mem_ctrls3.rdQLenPdf::20                  2258                       # What read queue length does an incoming req see
system.mem_ctrls3.rdQLenPdf::21                  2330                       # What read queue length does an incoming req see
system.mem_ctrls3.rdQLenPdf::22                  2302                       # What read queue length does an incoming req see
system.mem_ctrls3.rdQLenPdf::23                  2410                       # What read queue length does an incoming req see
system.mem_ctrls3.rdQLenPdf::24                  2373                       # What read queue length does an incoming req see
[...]
system.ruby.L2Cache_Controller.S_I.Ack_all::total          127                      
system.ruby.L2Cache_Controller.ISS.L1_GETS |           1    100.00%    100.00% |           0      0.00%    100.00% |           0      0.00%    100.00% |           0      0.00%    100.00% |           0      0.00%    100.00% |           0      0.00%    100.00% |           0      0.00%    100.00% |           0      0.00%    100.00% |           0      0.00%    100.00% |           0      0.00%    100.00% |           0      0.00%    100.00% |           0      0.00%    100.00% |           0      0.00%    100.00% |           0      0.00%    100.00% |           0      0.00%    100.00% |           0      0.00%    100.00% |           0      0.00%    100.00% |           0      0.00%    100.00% |           0      0.00%    100.00% |           0      0.00%    100.00% |           0      0.00%    100.00% |           0      0.00%    100.00% |           0      0.00%    100.00% |           0      0.00%    100.00% |           0      0.00%    100.00% |           0      0.00%    100.00% |           0      0.00%    100.00% |           0      0.00%    100.00% |           0      0.00%    100.00% |           0      0.00%    100.00% |           0      0.00%    100.00% |           0      0.00%    100.00%
system.ruby.L2Cache_Controller.ISS.L1_GETS::total            1                      
system.ruby.L2Cache_Controller.ISS.Mem_Data |       12415      4.30%      4.30% |        8990      3.11%      7.41% |        9006      3.12%     10.53% |        8944      3.10%     13.62% |        8918      3.09%     16.71% |        8906      3.08%     19.79% |        8912      3.09%     22.88% |        8921      3.09%     25.97% |        8937      3.09%     29.06% |        8971      3.11%     32.17% |        8988      3.11%     35.28% |        8909      3.08%     38.36% |        8920      3.09%     41.45% |        8913      3.09%     44.54% |        8928      3.09%     47.63% |        8872      3.07%     50.70% |        8915      3.09%     53.78% |        8888      3.08%     56.86% |        8899      3.08%     59.94% |        8895      3.08%     63.02% |        8910      3.08%     66.10% |        8922      3.09%     69.19% |        8923      3.09%     72.28% |        8889      3.08%     75.36% |        8897      3.08%     78.44% |        8924      3.09%     81.53% |        8897      3.08%     84.61% |        8877      3.07%     87.68% |        8910      3.08%     90.77% |        8904      3.08%     93.85% |        8870      3.07%     96.92% |        8902      3.08%    100.00%
system.ruby.L2Cache_Controller.ISS.Mem_Data::total       288872                      
system.ruby.L2Cache_Controller.IS.Mem_Data |         446      3.30%      3.30% |         421      3.12%      6.42% |         414      3.07%      9.49% |         404      2.99%     12.48% |         410      3.04%     15.52% |         401      2.97%     18.48% |         414      3.07%     21.55% |         417      3.09%     24.64% |         407      3.01%     27.65% |         416      3.08%     30.73% |         443      3.28%     34.01% |         438      3.24%     37.26% |         452      3.35%     40.61% |         429      3.18%     43.78% |         448      3.32%     47.10% |         440      3.26%     50.36% |         450      3.33%     53.69% |         440      3.26%     56.95% |         434      3.21%     60.16% |         406      3.01%     63.17% |         386      2.86%     66.03% |         408      3.02%     69.05% |         404      2.99%     72.04% |         395      2.93%     74.97% |         427      3.16%     78.13% |         447      3.31%     81.44% |         436      3.23%     84.67% |         401      2.97%     87.64% |         415      3.07%     90.71% |         426      3.15%     93.87% |         426      3.15%     97.02% |         402      2.98%    100.00%
system.ruby.L2Cache_Controller.IS.Mem_Data::total        13503                      
system.ruby.L2Cache_Controller.IM.Mem_Data |       14973      3.14%      3.14% |       14883      3.12%      6.26% |       14888      3.12%      9.39% |       14889      3.12%     12.51% |       14881      3.12%     15.63% |       14889      3.12%     18.76% |       14893      3.12%     21.88% |       14885      3.12%     25.00% |       14894      3.12%     28.13% |       14897      3.13%     31.25% |       14879      3.12%     34.38% |       14901      3.13%     37.50% |       14890      3.12%     40.63% |       14892      3.12%     43.75% |       14886      3.12%     46.87% |       14881      3.12%     49.99% |       14918      3.13%     53.12% |       14894      3.12%     56.25% |       14894      3.12%     59.37% |       14899      3.13%     62.50% |       14912      3.13%     65.63% |       14919      3.13%     68.76% |       14884      3.12%     71.88% |       14896      3.13%     75.01% |       14907      3.13%     78.13% |       14898      3.13%     81.26% |       14901      3.13%     84.38% |       14892      3.12%     87.51% |       14886      3.12%     90.63% |       14882      3.12%     93.75% |       14893      3.12%     96.88% |       14880      3.12%    100.00%
system.ruby.L2Cache_Controller.IM.Mem_Data::total       476656                      
system.ruby.L2Cache_Controller.SS_MB.Exclusive_Unblock |           3      6.12%      6.12% |           6     12.24%     18.37% |           2      4.08%     22.45% |           3      6.12%     28.57% |           0      0.00%     28.57% |           0      0.00%     28.57% |           0      0.00%     28.57% |           0      0.00%     28.57% |           1      2.04%     30.61% |           0      0.00%     30.61% |           0      0.00%     30.61% |           1      2.04%     32.65% |           4      8.16%     40.82% |           0      0.00%     40.82% |           2      4.08%     44.90% |           0      0.00%     44.90% |           1      2.04%     46.94% |           2      4.08%     51.02% |          13     26.53%     77.55% |           3      6.12%     83.67% |           0      0.00%     83.67% |           0      0.00%     83.67% |           0      0.00%     83.67% |           0      0.00%     83.67% |           1      2.04%     85.71% |           0      0.00%     85.71% |           3      6.12%     91.84% |           4      8.16%    100.00% |           0      0.00%    100.00% |           0      0.00%    100.00% |           0      0.00%    100.00% |           0      0.00%    100.00%
system.ruby.L2Cache_Controller.SS_MB.Exclusive_Unblock::total           49                      
system.ruby.L2Cache_Controller.MT_MB.Exclusive_Unblock |       75929      7.22%      7.22% |       32861      3.13%     10.35% |       29490      2.81%     13.16% |       32395      3.08%     16.24% |       29792      2.83%     19.07% |       29679      2.82%     21.90% |       29089      2.77%     24.66% |       29697      2.83%     27.49% |       30398      2.89%     30.38% |       29991      2.85%     33.24% |       32542      3.10%     36.33% |       30867      2.94%     39.27% |       30517      2.90%     42.17% |       30305      2.88%     45.06% |       29596      2.82%     47.87% |       30194      2.87%     50.74% |       31505      3.00%     53.74% |       30314      2.88%     56.63% |       30924      2.94%     59.57% |       31637      3.01%     62.58% |       32125      3.06%     65.64% |       37031      3.52%     69.16% |       31242      2.97%     72.13% |       31250      2.97%     75.10% |       31254      2.97%     78.08% |       31240      2.97%     81.05% |       31171      2.97%     84.02% |       30876      2.94%     86.95% |       32693      3.11%     90.06% |       32157      3.06%     93.12% |       34140      3.25%     96.37% |       38134      3.63%    100.00%
system.ruby.L2Cache_Controller.MT_MB.Exclusive_Unblock::total      1051035                      
system.ruby.L2Cache_Controller.MT_IIB.WB_Data |           1      1.23%      1.23% |           2      2.47%      3.70% |           1      1.23%      4.94% |           3      3.70%      8.64% |           3      3.70%     12.35% |           3      3.70%     16.05% |           4      4.94%     20.99% |           3      3.70%     24.69% |           5      6.17%     30.86% |           3      3.70%     34.57% |           2      2.47%     37.04% |           2      2.47%     39.51% |           3      3.70%     43.21% |           3      3.70%     46.91% |           4      4.94%     51.85% |           3      3.70%     55.56% |           3      3.70%     59.26% |           1      1.23%     60.49% |           2      2.47%     62.96% |           0      0.00%     62.96% |           1      1.23%     64.20% |           0      0.00%     64.20% |           1      1.23%     65.43% |           2      2.47%     67.90% |           3      3.70%     71.60% |           5      6.17%     77.78% |           4      4.94%     82.72% |           5      6.17%     88.89% |           3      3.70%     92.59% |           2      2.47%     95.06% |           2      2.47%     97.53% |           2      2.47%    100.00%
system.ruby.L2Cache_Controller.MT_IIB.WB_Data::total           81                      
system.ruby.L2Cache_Controller.MT_IIB.WB_Data_clean |          25     35.71%     35.71% |           0      0.00%     35.71% |           0      0.00%     35.71% |          14     20.00%     55.71% |           0      0.00%     55.71% |           0      0.00%     55.71% |           0      0.00%     55.71% |           0      0.00%     55.71% |           0      0.00%     55.71% |           0      0.00%     55.71% |           0      0.00%     55.71% |           0      0.00%     55.71% |           0      0.00%     55.71% |           0      0.00%     55.71% |           0      0.00%     55.71% |           0      0.00%     55.71% |          13     18.57%     74.29% |           0      0.00%     74.29% |           0      0.00%     74.29% |          16     22.86%     97.14% |           0      0.00%     97.14% |           0      0.00%     97.14% |           0      0.00%     97.14% |           0      0.00%     97.14% |           0      0.00%     97.14% |           0      0.00%     97.14% |           0      0.00%     97.14% |           2      2.86%    100.00% |           0      0.00%    100.00% |           0      0.00%    100.00% |           0      0.00%    100.00% |           0      0.00%    100.00%
system.ruby.L2Cache_Controller.MT_IIB.WB_Data_clean::total           70                      
system.ruby.L2Cache_Controller.MT_IIB.Unblock |           0      0.00%      0.00% |           0      0.00%      0.00% |           0      0.00%      0.00% |           1    100.00%    100.00% |           0      0.00%    100.00% |           0      0.00%    100.00% |           0      0.00%    100.00% |           0      0.00%    100.00% |           0      0.00%    100.00% |           0      0.00%    100.00% |           0      0.00%    100.00% |           0      0.00%    100.00% |           0      0.00%    100.00% |           0      0.00%    100.00% |           0      0.00%    100.00% |           0      0.00%    100.00% |           0      0.00%    100.00% |           0      0.00%    100.00% |           0      0.00%    100.00% |           0      0.00%    100.00% |           0      0.00%    100.00% |           0      0.00%    100.00% |           0      0.00%    100.00% |           0      0.00%    100.00% |           0      0.00%    100.00% |           0      0.00%    100.00% |           0      0.00%    100.00% |           0      0.00%    100.00% |           0      0.00%    100.00% |           0      0.00%    100.00% |           0      0.00%    100.00% |           0      0.00%    100.00%
system.ruby.L2Cache_Controller.MT_IIB.Unblock::total            1                      
system.ruby.L2Cache_Controller.MT_IB.WB_Data_clean |           0      0.00%      0.00% |           0      0.00%      0.00% |           0      0.00%      0.00% |           1    100.00%    100.00% |           0      0.00%    100.00% |           0      0.00%    100.00% |           0      0.00%    100.00% |           0      0.00%    100.00% |           0      0.00%    100.00% |           0      0.00%    100.00% |           0      0.00%    100.00% |           0      0.00%    100.00% |           0      0.00%    100.00% |           0      0.00%    100.00% |           0      0.00%    100.00% |           0      0.00%    100.00% |           0      0.00%    100.00% |           0      0.00%    100.00% |           0      0.00%    100.00% |           0      0.00%    100.00% |           0      0.00%    100.00% |           0      0.00%    100.00% |           0      0.00%    100.00% |           0      0.00%    100.00% |           0      0.00%    100.00% |           0      0.00%    100.00% |           0      0.00%    100.00% |           0      0.00%    100.00% |           0      0.00%    100.00% |           0      0.00%    100.00% |           0      0.00%    100.00% |           0      0.00%    100.00%
system.ruby.L2Cache_Controller.MT_IB.WB_Data_clean::total            1                      
system.ruby.L2Cache_Controller.MT_SB.Unblock |          26     17.22%     17.22% |           2      1.32%     18.54% |           1      0.66%     19.21% |          17     11.26%     30.46% |           3      1.99%     32.45% |           3      1.99%     34.44% |           4      2.65%     37.09% |           3      1.99%     39.07% |           5      3.31%     42.38% |           3      1.99%     44.37% |           2      1.32%     45.70% |           2      1.32%     47.02% |           3      1.99%     49.01% |           3      1.99%     50.99% |           4      2.65%     53.64% |           3      1.99%     55.63% |          16     10.60%     66.23% |           1      0.66%     66.89% |           2      1.32%     68.21% |          16     10.60%     78.81% |           1      0.66%     79.47% |           0      0.00%     79.47% |           1      0.66%     80.13% |           2      1.32%     81.46% |           3      1.99%     83.44% |           5      3.31%     86.75% |           4      2.65%     89.40% |           7      4.64%     94.04% |           3      1.99%     96.03% |           2      1.32%     97.35% |           2      1.32%     98.68% |           2      1.32%    100.00%
system.ruby.L2Cache_Controller.MT_SB.Unblock::total          151                      
system.ruby.SimicsNetworkPortInterface_Controller.MessageSend |       54915     16.71%     16.71% |      164296     50.00%     66.71% |       13555      4.13%     70.84% |       14524      4.42%     75.26% |       13456      4.10%     79.35% |       14403      4.38%     83.74% |       13557      4.13%     87.86% |       14679      4.47%     92.33% |       12278      3.74%     96.07% |       12929      3.93%    100.00% |           0      0.00%    100.00% |           0      0.00%    100.00% |           0      0.00%    100.00% |           0      0.00%    100.00% |           0      0.00%    100.00% |           0      0.00%    100.00% |           0      0.00%    100.00% |           0      0.00%    100.00% |           0      0.00%    100.00% |           0      0.00%    100.00% |           0      0.00%    100.00% |           0      0.00%    100.00% |           0      0.00%    100.00% |           0      0.00%    100.00% |           0      0.00%    100.00% |           0      0.00%    100.00% |           0      0.00%    100.00% |           0      0.00%    100.00% |           0      0.00%    100.00% |           0      0.00%    100.00% |           0      0.00%    100.00% |           0      0.00%    100.00%
system.ruby.SimicsNetworkPortInterface_Controller.MessageSend::total       328592                      
system.ruby.SimicsNetworkPortInterface_Controller.MessageRecv |       54915     16.71%     16.71% |      164296     50.00%     66.71% |       13555      4.13%     70.84% |       14524      4.42%     75.26% |       13456      4.10%     79.35% |       14403      4.38%     83.74% |       13557      4.13%     87.86% |       14679      4.47%     92.33% |       12278      3.74%     96.07% |       12929      3.93%    100.00% |           0      0.00%    100.00% |           0      0.00%    100.00% |           0      0.00%    100.00% |           0      0.00%    100.00% |           0      0.00%    100.00% |           0      0.00%    100.00% |           0      0.00%    100.00% |           0      0.00%    100.00% |           0      0.00%    100.00% |           0      0.00%    100.00% |           0      0.00%    100.00% |           0      0.00%    100.00% |           0      0.00%    100.00% |           0      0.00%    100.00% |           0      0.00%    100.00% |           0      0.00%    100.00% |           0      0.00%    100.00% |           0      0.00%    100.00% |           0      0.00%    100.00% |           0      0.00%    100.00% |           0      0.00%    100.00% |           0      0.00%    100.00%
system.ruby.SimicsNetworkPortInterface_Controller.MessageRecv::total       328592                      
system.ruby.SimicsNetworkPortInterface_Controller.A.MessageSend |       54915     16.71%     16.71% |      164296     50.00%     66.71% |       13555      4.13%     70.84% |       14524      4.42%     75.26% |       13456      4.10%     79.35% |       14403      4.38%     83.74% |       13557      4.13%     87.86% |       14679      4.47%     92.33% |       12278      3.74%     96.07% |       12929      3.93%    100.00% |           0      0.00%    100.00% |           0      0.00%    100.00% |           0      0.00%    100.00% |           0      0.00%    100.00% |           0      0.00%    100.00% |           0      0.00%    100.00% |           0      0.00%    100.00% |           0      0.00%    100.00% |           0      0.00%    100.00% |           0      0.00%    100.00% |           0      0.00%    100.00% |           0      0.00%    100.00% |           0      0.00%    100.00% |           0      0.00%    100.00% |           0      0.00%    100.00% |           0      0.00%    100.00% |           0      0.00%    100.00% |           0      0.00%    100.00% |           0      0.00%    100.00% |           0      0.00%    100.00% |           0      0.00%    100.00% |           0      0.00%    100.00%
system.ruby.SimicsNetworkPortInterface_Controller.A.MessageSend::total       328592                      
system.ruby.SimicsNetworkPortInterface_Controller.A.MessageRecv |       54915     16.71%     16.71% |      164296     50.00%     66.71% |       13555      4.13%     70.84% |       14524      4.42%     75.26% |       13456      4.10%     79.35% |       14403      4.38%     83.74% |       13557      4.13%     87.86% |       14679      4.47%     92.33% |       12278      3.74%     96.07% |       12929      3.93%    100.00% |           0      0.00%    100.00% |           0      0.00%    100.00% |           0      0.00%    100.00% |           0      0.00%    100.00% |           0      0.00%    100.00% |           0      0.00%    100.00% |           0      0.00%    100.00% |           0      0.00%    100.00% |           0      0.00%    100.00% |           0      0.00%    100.00% |           0      0.00%    100.00% |           0      0.00%    100.00% |           0      0.00%    100.00% |           0      0.00%    100.00% |           0      0.00%    100.00% |           0      0.00%    100.00% |           0      0.00%    100.00% |           0      0.00%    100.00% |           0      0.00%    100.00% |           0      0.00%    100.00% |           0      0.00%    100.00% |           0      0.00%    100.00%
system.ruby.SimicsNetworkPortInterface_Controller.A.MessageRecv::total       328592                      
system.switch_cpus.kern.inst.arm                    0                       # number of arm instructions executed
system.switch_cpus.kern.inst.quiesce                0                       # number of quiesce instructions executed

---------- End Simulation Statistics   ----------
