
---------- Begin Simulation Statistics ----------
sim_seconds                                  0.038051                       # Number of seconds simulated
sim_ticks                                 38051337000                       # Number of ticks simulated
final_tick                               5214219415500                       # Number of ticks from beginning of simulation (restored from checkpoints and never reset)
sim_freq                                 1000000000000                       # Frequency of simulated ticks
host_inst_rate                                  68495                       # Simulator instruction rate (inst/s)
host_op_rate                                   123174                       # Simulator op (including micro ops) rate (op/s)
host_tick_rate                              107180638                       # Simulator tick rate (ticks/s)
host_mem_usage                                4794844                       # Number of bytes of host memory used
host_seconds                                   355.02                       # Real time elapsed on the host
sim_insts                                    24317107                       # Number of instructions simulated
sim_ops                                      43729471                       # Number of ops (including micro ops) simulated
system.voltage_domain.voltage                       1                       # Voltage in Volts
system.clk_domain.clock                           500                       # Clock period in ticks
system.mem_ctrls0.bytes_read::ruby.dir_cntrl0      4968576                       # Number of bytes read from this memory
system.mem_ctrls0.bytes_read::total           4968576                       # Number of bytes read from this memory
system.mem_ctrls0.bytes_written::ruby.dir_cntrl0      3964800                       # Number of bytes written to this memory
system.mem_ctrls0.bytes_written::total        3964800                       # Number of bytes written to this memory
system.mem_ctrls0.num_reads::ruby.dir_cntrl0        77634                       # Number of read requests responded to by this memory
system.mem_ctrls0.num_reads::total              77634                       # Number of read requests responded to by this memory
system.mem_ctrls0.num_writes::ruby.dir_cntrl0        61950                       # Number of write requests responded to by this memory
system.mem_ctrls0.num_writes::total             61950                       # Number of write requests responded to by this memory
system.mem_ctrls0.bw_read::ruby.dir_cntrl0    130575596                       # Total read bandwidth from this memory (bytes/s)
system.mem_ctrls0.bw_read::total            130575596                       # Total read bandwidth from this memory (bytes/s)
system.mem_ctrls0.bw_write::ruby.dir_cntrl0    104196076                       # Write bandwidth from this memory (bytes/s)
system.mem_ctrls0.bw_write::total           104196076                       # Write bandwidth from this memory (bytes/s)
system.mem_ctrls0.bw_total::ruby.dir_cntrl0    234771672                       # Total bandwidth to/from this memory (bytes/s)
system.mem_ctrls0.bw_total::total           234771672                       # Total bandwidth to/from this memory (bytes/s)
system.mem_ctrls0.readReqs                      77634                       # Number of read requests accepted
system.mem_ctrls0.writeReqs                     61950                       # Number of write requests accepted
system.mem_ctrls0.readBursts                    77634                       # Number of DRAM read bursts, including those serviced by the write queue
system.mem_ctrls0.writeBursts                   61950                       # Number of DRAM write bursts, including those merged in the write queue
system.mem_ctrls0.bytesReadDRAM               4967232                       # Total number of bytes read from DRAM
system.mem_ctrls0.bytesReadWrQ                   1344                       # Total number of bytes read from write queue
system.mem_ctrls0.bytesWritten                3964544                       # Total number of bytes written to DRAM
system.mem_ctrls0.bytesReadSys                4968576                       # Total read bytes from the system interface side
system.mem_ctrls0.bytesWrittenSys             3964800                       # Total written bytes from the system interface side
system.mem_ctrls0.servicedByWrQ                    21                       # Number of DRAM read bursts serviced by the write queue
system.mem_ctrls0.mergedWrBursts                    0                       # Number of DRAM write bursts merged with an existing one
system.mem_ctrls0.neitherReadNorWriteReqs            0                       # Number of requests that are neither read nor write
system.mem_ctrls0.perBankRdBursts::0             4384                       # Per bank write bursts
system.mem_ctrls0.perBankRdBursts::1             4842                       # Per bank write bursts
system.mem_ctrls0.perBankRdBursts::2             4545                       # Per bank write bursts
system.mem_ctrls0.perBankRdBursts::3             4966                       # Per bank write bursts
system.mem_ctrls0.perBankRdBursts::4             4853                       # Per bank write bursts
system.mem_ctrls0.perBankRdBursts::5             5351                       # Per bank write bursts
system.mem_ctrls0.perBankRdBursts::6             4950                       # Per bank write bursts
system.mem_ctrls0.perBankRdBursts::7             5222                       # Per bank write bursts
system.mem_ctrls0.perBankRdBursts::8             5047                       # Per bank write bursts
system.mem_ctrls0.perBankRdBursts::9             5205                       # Per bank write bursts
system.mem_ctrls0.perBankRdBursts::10            4616                       # Per bank write bursts
system.mem_ctrls0.perBankRdBursts::11            4794                       # Per bank write bursts
system.mem_ctrls0.perBankRdBursts::12            4591                       # Per bank write bursts
system.mem_ctrls0.perBankRdBursts::13            4630                       # Per bank write bursts
system.mem_ctrls0.perBankRdBursts::14            4802                       # Per bank write bursts
system.mem_ctrls0.perBankRdBursts::15            4815                       # Per bank write bursts
system.mem_ctrls0.perBankWrBursts::0             3625                       # Per bank write bursts
system.mem_ctrls0.perBankWrBursts::1             3568                       # Per bank write bursts
system.mem_ctrls0.perBankWrBursts::2             3643                       # Per bank write bursts
system.mem_ctrls0.perBankWrBursts::3             3793                       # Per bank write bursts
system.mem_ctrls0.perBankWrBursts::4             3862                       # Per bank write bursts
system.mem_ctrls0.perBankWrBursts::5             4191                       # Per bank write bursts
system.mem_ctrls0.perBankWrBursts::6             3918                       # Per bank write bursts
system.mem_ctrls0.perBankWrBursts::7             4185                       # Per bank write bursts
system.mem_ctrls0.perBankWrBursts::8             4058                       # Per bank write bursts
system.mem_ctrls0.perBankWrBursts::9             4136                       # Per bank write bursts
system.mem_ctrls0.perBankWrBursts::10            3697                       # Per bank write bursts
system.mem_ctrls0.perBankWrBursts::11            3637                       # Per bank write bursts
system.mem_ctrls0.perBankWrBursts::12            3795                       # Per bank write bursts
system.mem_ctrls0.perBankWrBursts::13            3901                       # Per bank write bursts
system.mem_ctrls0.perBankWrBursts::14            4031                       # Per bank write bursts
system.mem_ctrls0.perBankWrBursts::15            3906                       # Per bank write bursts
system.mem_ctrls0.numRdRetry                        1                       # Number of times read queue was full causing retry
system.mem_ctrls0.numWrRetry                      127                       # Number of times write queue was full causing retry
system.mem_ctrls0.totGap                  38050859000                       # Total gap between requests
system.mem_ctrls0.readPktSize::0                    0                       # Read request sizes (log2)
system.mem_ctrls0.readPktSize::1                    0                       # Read request sizes (log2)
system.mem_ctrls0.readPktSize::2                    0                       # Read request sizes (log2)
system.mem_ctrls0.readPktSize::3                    0                       # Read request sizes (log2)
system.mem_ctrls0.readPktSize::4                    0                       # Read request sizes (log2)
system.mem_ctrls0.readPktSize::5                    0                       # Read request sizes (log2)
system.mem_ctrls0.readPktSize::6                77634                       # Read request sizes (log2)
system.mem_ctrls0.writePktSize::0                   0                       # Write request sizes (log2)
system.mem_ctrls0.writePktSize::1                   0                       # Write request sizes (log2)
system.mem_ctrls0.writePktSize::2                   0                       # Write request sizes (log2)
system.mem_ctrls0.writePktSize::3                   0                       # Write request sizes (log2)
system.mem_ctrls0.writePktSize::4                   0                       # Write request sizes (log2)
system.mem_ctrls0.writePktSize::5                   0                       # Write request sizes (log2)
system.mem_ctrls0.writePktSize::6               61950                       # Write request sizes (log2)
system.mem_ctrls0.rdQLenPdf::0                  59767                       # What read queue length does an incoming req see
system.mem_ctrls0.rdQLenPdf::1                  10546                       # What read queue length does an incoming req see
system.mem_ctrls0.rdQLenPdf::2                   3579                       # What read queue length does an incoming req see
system.mem_ctrls0.rdQLenPdf::3                   1477                       # What read queue length does an incoming req see
system.mem_ctrls0.rdQLenPdf::4                    781                       # What read queue length does an incoming req see
system.mem_ctrls0.rdQLenPdf::5                    470                       # What read queue length does an incoming req see
system.mem_ctrls0.rdQLenPdf::6                    282                       # What read queue length does an incoming req see
system.mem_ctrls0.rdQLenPdf::7                    177                       # What read queue length does an incoming req see
system.mem_ctrls0.rdQLenPdf::8                    119                       # What read queue length does an incoming req see
system.mem_ctrls0.rdQLenPdf::9                     81                       # What read queue length does an incoming req see
system.mem_ctrls0.rdQLenPdf::10                    56                       # What read queue length does an incoming req see
system.mem_ctrls0.rdQLenPdf::11                    45                       # What read queue length does an incoming req see
system.mem_ctrls0.rdQLenPdf::12                    54                       # What read queue length does an incoming req see
system.mem_ctrls0.rdQLenPdf::13                    33                       # What read queue length does an incoming req see
system.mem_ctrls0.rdQLenPdf::14                    22                       # What read queue length does an incoming req see
system.mem_ctrls0.rdQLenPdf::15                    18                       # What read queue length does an incoming req see
system.mem_ctrls0.rdQLenPdf::16                    15                       # What read queue length does an incoming req see
system.mem_ctrls0.rdQLenPdf::17                    12                       # What read queue length does an incoming req see
system.mem_ctrls0.rdQLenPdf::18                    13                       # What read queue length does an incoming req see
system.mem_ctrls0.rdQLenPdf::19                    11                       # What read queue length does an incoming req see
system.mem_ctrls0.rdQLenPdf::20                    12                       # What read queue length does an incoming req see
system.mem_ctrls0.rdQLenPdf::21                    12                       # What read queue length does an incoming req see
system.mem_ctrls0.rdQLenPdf::22                     8                       # What read queue length does an incoming req see
system.mem_ctrls0.rdQLenPdf::23                     5                       # What read queue length does an incoming req see
system.mem_ctrls0.rdQLenPdf::24                     6                       # What read queue length does an incoming req see
system.mem_ctrls0.rdQLenPdf::25                     5                       # What read queue length does an incoming req see
system.mem_ctrls0.rdQLenPdf::26                     1                       # What read queue length does an incoming req see
system.mem_ctrls0.rdQLenPdf::27                     1                       # What read queue length does an incoming req see
system.mem_ctrls0.rdQLenPdf::28                     1                       # What read queue length does an incoming req see
system.mem_ctrls0.rdQLenPdf::29                     1                       # What read queue length does an incoming req see
system.mem_ctrls0.rdQLenPdf::30                     1                       # What read queue length does an incoming req see
system.mem_ctrls0.rdQLenPdf::31                     2                       # What read queue length does an incoming req see
system.mem_ctrls0.wrQLenPdf::0                  11499                       # What write queue length does an incoming req see
system.mem_ctrls0.wrQLenPdf::1                  12630                       # What write queue length does an incoming req see
system.mem_ctrls0.wrQLenPdf::2                  12667                       # What write queue length does an incoming req see
system.mem_ctrls0.wrQLenPdf::3                  12372                       # What write queue length does an incoming req see
system.mem_ctrls0.wrQLenPdf::4                  11947                       # What write queue length does an incoming req see
system.mem_ctrls0.wrQLenPdf::5                    419                       # What write queue length does an incoming req see
system.mem_ctrls0.wrQLenPdf::6                    183                       # What write queue length does an incoming req see
system.mem_ctrls0.wrQLenPdf::7                    233                       # What write queue length does an incoming req see
system.mem_ctrls0.bytesPerActivate::samples        52632                       # Bytes accessed per row activation
system.mem_ctrls0.bytesPerActivate::mean   169.686579                       # Bytes accessed per row activation
system.mem_ctrls0.bytesPerActivate::gmean   120.699337                       # Bytes accessed per row activation
system.mem_ctrls0.bytesPerActivate::stdev   175.279616                       # Bytes accessed per row activation
system.mem_ctrls0.bytesPerActivate::0-127        26742     50.81%     50.81% # Bytes accessed per row activation
system.mem_ctrls0.bytesPerActivate::128-255        13224     25.13%     75.93% # Bytes accessed per row activation
system.mem_ctrls0.bytesPerActivate::256-383         7700     14.63%     90.56% # Bytes accessed per row activation
system.mem_ctrls0.bytesPerActivate::384-511         1920      3.65%     94.21% # Bytes accessed per row activation
system.mem_ctrls0.bytesPerActivate::512-639         1128      2.14%     96.36% # Bytes accessed per row activation
system.mem_ctrls0.bytesPerActivate::640-767          615      1.17%     97.52% # Bytes accessed per row activation
system.mem_ctrls0.bytesPerActivate::768-895          403      0.77%     98.29% # Bytes accessed per row activation
system.mem_ctrls0.bytesPerActivate::896-1023          340      0.65%     98.94% # Bytes accessed per row activation
system.mem_ctrls0.bytesPerActivate::1024-1151          560      1.06%    100.00% # Bytes accessed per row activation
system.mem_ctrls0.bytesPerActivate::total        52632                       # Bytes accessed per row activation
system.mem_ctrls0.rdPerTurnAround::samples        11518                       # Reads before turning the bus around for writes
system.mem_ctrls0.rdPerTurnAround::mean      6.737628                       # Reads before turning the bus around for writes
system.mem_ctrls0.rdPerTurnAround::stdev    37.605116                       # Reads before turning the bus around for writes
system.mem_ctrls0.rdPerTurnAround::0-127        11512     99.95%     99.95% # Reads before turning the bus around for writes
system.mem_ctrls0.rdPerTurnAround::128-255            5      0.04%     99.99% # Reads before turning the bus around for writes
system.mem_ctrls0.rdPerTurnAround::3968-4095            1      0.01%    100.00% # Reads before turning the bus around for writes
system.mem_ctrls0.rdPerTurnAround::total        11518                       # Reads before turning the bus around for writes
system.mem_ctrls0.wrPerTurnAround::samples        11518                       # Writes before turning the bus around for reads
system.mem_ctrls0.wrPerTurnAround::mean      5.378191                       # Writes before turning the bus around for reads
system.mem_ctrls0.wrPerTurnAround::gmean     5.299256                       # Writes before turning the bus around for reads
system.mem_ctrls0.wrPerTurnAround::stdev     1.148163                       # Writes before turning the bus around for reads
system.mem_ctrls0.wrPerTurnAround::4-7          10999     95.49%     95.49% # Writes before turning the bus around for reads
system.mem_ctrls0.wrPerTurnAround::8-11           437      3.79%     99.29% # Writes before turning the bus around for reads
system.mem_ctrls0.wrPerTurnAround::12-15           58      0.50%     99.79% # Writes before turning the bus around for reads
system.mem_ctrls0.wrPerTurnAround::16-19           24      0.21%    100.00% # Writes before turning the bus around for reads
system.mem_ctrls0.wrPerTurnAround::total        11518                       # Writes before turning the bus around for reads
system.mem_ctrls0.totQLat                  1890336156                       # Total ticks spent queuing
system.mem_ctrls0.totMemAccLat             3345579906                       # Total ticks spent from burst creation until serviced by the DRAM
system.mem_ctrls0.totBusLat                 388065000                       # Total ticks spent in databus transfers
system.mem_ctrls0.avgQLat                    24355.92                       # Average queueing delay per DRAM burst
system.mem_ctrls0.avgBusLat                   5000.00                       # Average bus latency per DRAM burst
system.mem_ctrls0.avgMemAccLat               43105.92                       # Average memory access latency per DRAM burst
system.mem_ctrls0.avgRdBW                      130.54                       # Average DRAM read bandwidth in MiByte/s
system.mem_ctrls0.avgWrBW                      104.19                       # Average achieved write bandwidth in MiByte/s
system.mem_ctrls0.avgRdBWSys                   130.58                       # Average system read bandwidth in MiByte/s
system.mem_ctrls0.avgWrBWSys                   104.20                       # Average system write bandwidth in MiByte/s
system.mem_ctrls0.peakBW                     12800.00                       # Theoretical peak bandwidth in MiByte/s
system.mem_ctrls0.busUtil                        1.83                       # Data bus utilization in percentage
system.mem_ctrls0.busUtilRead                    1.02                       # Data bus utilization in percentage for reads
system.mem_ctrls0.busUtilWrite                   0.81                       # Data bus utilization in percentage for writes
system.mem_ctrls0.avgRdQLen                      1.10                       # Average read queue length when enqueuing
system.mem_ctrls0.avgWrQLen                      2.85                       # Average write queue length when enqueuing
system.mem_ctrls0.readRowHits                   53564                       # Number of row buffer hits during reads
system.mem_ctrls0.writeRowHits                  33355                       # Number of row buffer hits during writes
system.mem_ctrls0.readRowHitRate                69.01                       # Row buffer hit rate for reads
system.mem_ctrls0.writeRowHitRate               53.84                       # Row buffer hit rate for writes
system.mem_ctrls0.avgGap                    272601.87                       # Average gap between requests
system.mem_ctrls0.pageHitRate                   62.28                       # Row buffer hit rate, read and write combined
system.mem_ctrls0.memoryStateTime::IDLE    8530628750                       # Time in different power states
system.mem_ctrls0.memoryStateTime::REF     1270360000                       # Time in different power states
system.mem_ctrls0.memoryStateTime::PRE_PDN            0                       # Time in different power states
system.mem_ctrls0.memoryStateTime::ACT    28242902500                       # Time in different power states
system.mem_ctrls0.memoryStateTime::ACT_PDN            0                       # Time in different power states
system.mem_ctrls0.actEnergy::0              198812880                       # Energy for activate commands per rank (pJ)
system.mem_ctrls0.actEnergy::1              199009440                       # Energy for activate commands per rank (pJ)
system.mem_ctrls0.preEnergy::0              108479250                       # Energy for precharge commands per rank (pJ)
system.mem_ctrls0.preEnergy::1              108586500                       # Energy for precharge commands per rank (pJ)
system.mem_ctrls0.readEnergy::0             305026800                       # Energy for read commands per rank (pJ)
system.mem_ctrls0.readEnergy::1             300175200                       # Energy for read commands per rank (pJ)
system.mem_ctrls0.writeEnergy::0            199473840                       # Energy for write commands per rank (pJ)
system.mem_ctrls0.writeEnergy::1            201871440                       # Energy for write commands per rank (pJ)
system.mem_ctrls0.refreshEnergy::0         2484824160                       # Energy for refresh commands per rank (pJ)
system.mem_ctrls0.refreshEnergy::1         2484824160                       # Energy for refresh commands per rank (pJ)
system.mem_ctrls0.actBackEnergy::0        15316147665                       # Energy for active background per rank (pJ)
system.mem_ctrls0.actBackEnergy::1        14865021450                       # Energy for active background per rank (pJ)
system.mem_ctrls0.preBackEnergy::0         9391109250                       # Energy for precharge background per rank (pJ)
system.mem_ctrls0.preBackEnergy::1         9786834000                       # Energy for precharge background per rank (pJ)
system.mem_ctrls0.totalEnergy::0          28003873845                       # Total energy per rank (pJ)
system.mem_ctrls0.totalEnergy::1          27946322190                       # Total energy per rank (pJ)
system.mem_ctrls0.averagePower::0          736.094102                       # Core power per rank (mW)
system.mem_ctrls0.averagePower::1          734.581332                       # Core power per rank (mW)
system.mem_ctrls1.bytes_read::ruby.dir_cntrl1      4881600                       # Number of bytes read from this memory
system.mem_ctrls1.bytes_read::total           4881600                       # Number of bytes read from this memory
system.mem_ctrls1.bytes_written::ruby.dir_cntrl1      3885760                       # Number of bytes written to this memory
system.mem_ctrls1.bytes_written::total        3885760                       # Number of bytes written to this memory
system.mem_ctrls1.num_reads::ruby.dir_cntrl1        76275                       # Number of read requests responded to by this memory
system.mem_ctrls1.num_reads::total              76275                       # Number of read requests responded to by this memory
system.mem_ctrls1.num_writes::ruby.dir_cntrl1        60715                       # Number of write requests responded to by this memory
system.mem_ctrls1.num_writes::total             60715                       # Number of write requests responded to by this memory
system.mem_ctrls1.bw_read::ruby.dir_cntrl1    128289842                       # Total read bandwidth from this memory (bytes/s)
system.mem_ctrls1.bw_read::total            128289842                       # Total read bandwidth from this memory (bytes/s)
system.mem_ctrls1.bw_write::ruby.dir_cntrl1    102118882                       # Write bandwidth from this memory (bytes/s)
system.mem_ctrls1.bw_write::total           102118882                       # Write bandwidth from this memory (bytes/s)
system.mem_ctrls1.bw_total::ruby.dir_cntrl1    230408724                       # Total bandwidth to/from this memory (bytes/s)
system.mem_ctrls1.bw_total::total           230408724                       # Total bandwidth to/from this memory (bytes/s)
system.mem_ctrls1.readReqs                      76275                       # Number of read requests accepted
system.mem_ctrls1.writeReqs                     60715                       # Number of write requests accepted
system.mem_ctrls1.readBursts                    76275                       # Number of DRAM read bursts, including those serviced by the write queue
system.mem_ctrls1.writeBursts                   60715                       # Number of DRAM write bursts, including those merged in the write queue
system.mem_ctrls1.bytesReadDRAM               4880768                       # Total number of bytes read from DRAM
system.mem_ctrls1.bytesReadWrQ                    832                       # Total number of bytes read from write queue
system.mem_ctrls1.bytesWritten                3885760                       # Total number of bytes written to DRAM
system.mem_ctrls1.bytesReadSys                4881600                       # Total read bytes from the system interface side
system.mem_ctrls1.bytesWrittenSys             3885760                       # Total written bytes from the system interface side
system.mem_ctrls1.servicedByWrQ                    13                       # Number of DRAM read bursts serviced by the write queue
system.mem_ctrls1.mergedWrBursts                    0                       # Number of DRAM write bursts merged with an existing one
system.mem_ctrls1.neitherReadNorWriteReqs            0                       # Number of requests that are neither read nor write
system.mem_ctrls1.perBankRdBursts::0             4313                       # Per bank write bursts
system.mem_ctrls1.perBankRdBursts::1             4748                       # Per bank write bursts
system.mem_ctrls1.perBankRdBursts::2             4461                       # Per bank write bursts
system.mem_ctrls1.perBankRdBursts::3             4894                       # Per bank write bursts
system.mem_ctrls1.perBankRdBursts::4             4783                       # Per bank write bursts
system.mem_ctrls1.perBankRdBursts::5             5298                       # Per bank write bursts
system.mem_ctrls1.perBankRdBursts::6             4884                       # Per bank write bursts
system.mem_ctrls1.perBankRdBursts::7             5162                       # Per bank write bursts
system.mem_ctrls1.perBankRdBursts::8             4941                       # Per bank write bursts
system.mem_ctrls1.perBankRdBursts::9             5092                       # Per bank write bursts
system.mem_ctrls1.perBankRdBursts::10            4518                       # Per bank write bursts
system.mem_ctrls1.perBankRdBursts::11            4727                       # Per bank write bursts
system.mem_ctrls1.perBankRdBursts::12            4493                       # Per bank write bursts
system.mem_ctrls1.perBankRdBursts::13            4574                       # Per bank write bursts
system.mem_ctrls1.perBankRdBursts::14            4636                       # Per bank write bursts
system.mem_ctrls1.perBankRdBursts::15            4738                       # Per bank write bursts
system.mem_ctrls1.perBankWrBursts::0             3560                       # Per bank write bursts
system.mem_ctrls1.perBankWrBursts::1             3507                       # Per bank write bursts
system.mem_ctrls1.perBankWrBursts::2             3574                       # Per bank write bursts
system.mem_ctrls1.perBankWrBursts::3             3743                       # Per bank write bursts
system.mem_ctrls1.perBankWrBursts::4             3792                       # Per bank write bursts
system.mem_ctrls1.perBankWrBursts::5             4122                       # Per bank write bursts
system.mem_ctrls1.perBankWrBursts::6             3839                       # Per bank write bursts
system.mem_ctrls1.perBankWrBursts::7             4100                       # Per bank write bursts
system.mem_ctrls1.perBankWrBursts::8             3972                       # Per bank write bursts
system.mem_ctrls1.perBankWrBursts::9             4037                       # Per bank write bursts
system.mem_ctrls1.perBankWrBursts::10            3617                       # Per bank write bursts
system.mem_ctrls1.perBankWrBursts::11            3570                       # Per bank write bursts
system.mem_ctrls1.perBankWrBursts::12            3719                       # Per bank write bursts
system.mem_ctrls1.perBankWrBursts::13            3830                       # Per bank write bursts
system.mem_ctrls1.perBankWrBursts::14            3899                       # Per bank write bursts
system.mem_ctrls1.perBankWrBursts::15            3834                       # Per bank write bursts
system.mem_ctrls1.numRdRetry                        3                       # Number of times read queue was full causing retry
system.mem_ctrls1.numWrRetry                      150                       # Number of times write queue was full causing retry
system.mem_ctrls1.totGap                  38050622500                       # Total gap between requests
system.mem_ctrls1.readPktSize::0                    0                       # Read request sizes (log2)
system.mem_ctrls1.readPktSize::1                    0                       # Read request sizes (log2)
system.mem_ctrls1.readPktSize::2                    0                       # Read request sizes (log2)
system.mem_ctrls1.readPktSize::3                    0                       # Read request sizes (log2)
system.mem_ctrls1.readPktSize::4                    0                       # Read request sizes (log2)
system.mem_ctrls1.readPktSize::5                    0                       # Read request sizes (log2)
system.mem_ctrls1.readPktSize::6                76275                       # Read request sizes (log2)
system.mem_ctrls1.writePktSize::0                   0                       # Write request sizes (log2)
system.mem_ctrls1.writePktSize::1                   0                       # Write request sizes (log2)
system.mem_ctrls1.writePktSize::2                   0                       # Write request sizes (log2)
system.mem_ctrls1.writePktSize::3                   0                       # Write request sizes (log2)
system.mem_ctrls1.writePktSize::4                   0                       # Write request sizes (log2)
system.mem_ctrls1.writePktSize::5                   0                       # Write request sizes (log2)
system.mem_ctrls1.writePktSize::6               60715                       # Write request sizes (log2)
system.mem_ctrls1.rdQLenPdf::0                  59217                       # What read queue length does an incoming req see
system.mem_ctrls1.rdQLenPdf::1                   9923                       # What read queue length does an incoming req see
system.mem_ctrls1.rdQLenPdf::2                   3350                       # What read queue length does an incoming req see
system.mem_ctrls1.rdQLenPdf::3                   1430                       # What read queue length does an incoming req see
system.mem_ctrls1.rdQLenPdf::4                    821                       # What read queue length does an incoming req see
system.mem_ctrls1.rdQLenPdf::5                    501                       # What read queue length does an incoming req see
system.mem_ctrls1.rdQLenPdf::6                    320                       # What read queue length does an incoming req see
system.mem_ctrls1.rdQLenPdf::7                    187                       # What read queue length does an incoming req see
system.mem_ctrls1.rdQLenPdf::8                    108                       # What read queue length does an incoming req see
system.mem_ctrls1.rdQLenPdf::9                     67                       # What read queue length does an incoming req see
system.mem_ctrls1.rdQLenPdf::10                    50                       # What read queue length does an incoming req see
system.mem_ctrls1.rdQLenPdf::11                    41                       # What read queue length does an incoming req see
system.mem_ctrls1.rdQLenPdf::12                    37                       # What read queue length does an incoming req see
system.mem_ctrls1.rdQLenPdf::13                    32                       # What read queue length does an incoming req see
system.mem_ctrls1.rdQLenPdf::14                    29                       # What read queue length does an incoming req see
system.mem_ctrls1.rdQLenPdf::15                    28                       # What read queue length does an incoming req see
system.mem_ctrls1.rdQLenPdf::16                    20                       # What read queue length does an incoming req see
system.mem_ctrls1.rdQLenPdf::17                    18                       # What read queue length does an incoming req see
system.mem_ctrls1.rdQLenPdf::18                    15                       # What read queue length does an incoming req see
system.mem_ctrls1.rdQLenPdf::19                    11                       # What read queue length does an incoming req see
system.mem_ctrls1.rdQLenPdf::20                    12                       # What read queue length does an incoming req see
system.mem_ctrls1.rdQLenPdf::21                    11                       # What read queue length does an incoming req see
system.mem_ctrls1.rdQLenPdf::22                    10                       # What read queue length does an incoming req see
system.mem_ctrls1.rdQLenPdf::23                     5                       # What read queue length does an incoming req see
system.mem_ctrls1.rdQLenPdf::24                     4                       # What read queue length does an incoming req see
system.mem_ctrls1.rdQLenPdf::25                     4                       # What read queue length does an incoming req see
system.mem_ctrls1.rdQLenPdf::26                     3                       # What read queue length does an incoming req see
system.mem_ctrls1.rdQLenPdf::27                     1                       # What read queue length does an incoming req see
system.mem_ctrls1.rdQLenPdf::28                     1                       # What read queue length does an incoming req see
system.mem_ctrls1.rdQLenPdf::29                     1                       # What read queue length does an incoming req see
system.mem_ctrls1.rdQLenPdf::30                     1                       # What read queue length does an incoming req see
system.mem_ctrls1.rdQLenPdf::31                     4                       # What read queue length does an incoming req see
system.mem_ctrls1.wrQLenPdf::0                  11269                       # What write queue length does an incoming req see
system.mem_ctrls1.wrQLenPdf::1                  12327                       # What write queue length does an incoming req see
system.mem_ctrls1.wrQLenPdf::2                  12417                       # What write queue length does an incoming req see
system.mem_ctrls1.wrQLenPdf::3                  12131                       # What write queue length does an incoming req see
system.mem_ctrls1.wrQLenPdf::4                  11745                       # What write queue length does an incoming req see
system.mem_ctrls1.wrQLenPdf::5                    410                       # What write queue length does an incoming req see
system.mem_ctrls1.wrQLenPdf::6                    170                       # What write queue length does an incoming req see
system.mem_ctrls1.wrQLenPdf::7                    246                       # What write queue length does an incoming req see
system.mem_ctrls1.bytesPerActivate::samples        50623                       # Bytes accessed per row activation
system.mem_ctrls1.bytesPerActivate::mean   173.153863                       # Bytes accessed per row activation
system.mem_ctrls1.bytesPerActivate::gmean   122.517222                       # Bytes accessed per row activation
system.mem_ctrls1.bytesPerActivate::stdev   179.238114                       # Bytes accessed per row activation
system.mem_ctrls1.bytesPerActivate::0-127        25329     50.03%     50.03% # Bytes accessed per row activation
system.mem_ctrls1.bytesPerActivate::128-255        12724     25.13%     75.17% # Bytes accessed per row activation
system.mem_ctrls1.bytesPerActivate::256-383         7595     15.00%     90.17% # Bytes accessed per row activation
system.mem_ctrls1.bytesPerActivate::384-511         1892      3.74%     93.91% # Bytes accessed per row activation
system.mem_ctrls1.bytesPerActivate::512-639         1138      2.25%     96.16% # Bytes accessed per row activation
system.mem_ctrls1.bytesPerActivate::640-767          599      1.18%     97.34% # Bytes accessed per row activation
system.mem_ctrls1.bytesPerActivate::768-895          434      0.86%     98.20% # Bytes accessed per row activation
system.mem_ctrls1.bytesPerActivate::896-1023          298      0.59%     98.79% # Bytes accessed per row activation
system.mem_ctrls1.bytesPerActivate::1024-1151          614      1.21%    100.00% # Bytes accessed per row activation
system.mem_ctrls1.bytesPerActivate::total        50623                       # Bytes accessed per row activation
system.mem_ctrls1.rdPerTurnAround::samples        11289                       # Reads before turning the bus around for writes
system.mem_ctrls1.rdPerTurnAround::mean      6.755426                       # Reads before turning the bus around for writes
system.mem_ctrls1.rdPerTurnAround::stdev    29.933939                       # Reads before turning the bus around for writes
system.mem_ctrls1.rdPerTurnAround::0-127        11284     99.96%     99.96% # Reads before turning the bus around for writes
system.mem_ctrls1.rdPerTurnAround::128-255            3      0.03%     99.98% # Reads before turning the bus around for writes
system.mem_ctrls1.rdPerTurnAround::1152-1279            1      0.01%     99.99% # Reads before turning the bus around for writes
system.mem_ctrls1.rdPerTurnAround::2816-2943            1      0.01%    100.00% # Reads before turning the bus around for writes
system.mem_ctrls1.rdPerTurnAround::total        11289                       # Reads before turning the bus around for writes
system.mem_ctrls1.wrPerTurnAround::samples        11289                       # Writes before turning the bus around for reads
system.mem_ctrls1.wrPerTurnAround::mean      5.378244                       # Writes before turning the bus around for reads
system.mem_ctrls1.wrPerTurnAround::gmean     5.296572                       # Writes before turning the bus around for reads
system.mem_ctrls1.wrPerTurnAround::stdev     1.171466                       # Writes before turning the bus around for reads
system.mem_ctrls1.wrPerTurnAround::4-7          10784     95.53%     95.53% # Writes before turning the bus around for reads
system.mem_ctrls1.wrPerTurnAround::8-11           403      3.57%     99.10% # Writes before turning the bus around for reads
system.mem_ctrls1.wrPerTurnAround::12-15           80      0.71%     99.81% # Writes before turning the bus around for reads
system.mem_ctrls1.wrPerTurnAround::16-19           22      0.19%    100.00% # Writes before turning the bus around for reads
system.mem_ctrls1.wrPerTurnAround::total        11289                       # Writes before turning the bus around for reads
system.mem_ctrls1.totQLat                  1826249084                       # Total ticks spent queuing
system.mem_ctrls1.totMemAccLat             3256161584                       # Total ticks spent from burst creation until serviced by the DRAM
system.mem_ctrls1.totBusLat                 381310000                       # Total ticks spent in databus transfers
system.mem_ctrls1.avgQLat                    23947.04                       # Average queueing delay per DRAM burst
system.mem_ctrls1.avgBusLat                   5000.00                       # Average bus latency per DRAM burst
system.mem_ctrls1.avgMemAccLat               42697.04                       # Average memory access latency per DRAM burst
system.mem_ctrls1.avgRdBW                      128.27                       # Average DRAM read bandwidth in MiByte/s
system.mem_ctrls1.avgWrBW                      102.12                       # Average achieved write bandwidth in MiByte/s
system.mem_ctrls1.avgRdBWSys                   128.29                       # Average system read bandwidth in MiByte/s
system.mem_ctrls1.avgWrBWSys                   102.12                       # Average system write bandwidth in MiByte/s
system.mem_ctrls1.peakBW                     12800.00                       # Theoretical peak bandwidth in MiByte/s
system.mem_ctrls1.busUtil                        1.80                       # Data bus utilization in percentage
system.mem_ctrls1.busUtilRead                    1.00                       # Data bus utilization in percentage for reads
system.mem_ctrls1.busUtilWrite                   0.80                       # Data bus utilization in percentage for writes
system.mem_ctrls1.avgRdQLen                      1.07                       # Average read queue length when enqueuing
system.mem_ctrls1.avgWrQLen                      2.91                       # Average write queue length when enqueuing
system.mem_ctrls1.readRowHits                   52847                       # Number of row buffer hits during reads
system.mem_ctrls1.writeRowHits                  33496                       # Number of row buffer hits during writes
system.mem_ctrls1.readRowHitRate                69.30                       # Row buffer hit rate for reads
system.mem_ctrls1.writeRowHitRate               55.17                       # Row buffer hit rate for writes
system.mem_ctrls1.avgGap                    277762.04                       # Average gap between requests
system.mem_ctrls1.pageHitRate                   63.03                       # Row buffer hit rate, read and write combined
system.mem_ctrls1.memoryStateTime::IDLE    8885365250                       # Time in different power states
system.mem_ctrls1.memoryStateTime::REF     1270360000                       # Time in different power states
system.mem_ctrls1.memoryStateTime::PRE_PDN            0                       # Time in different power states
system.mem_ctrls1.memoryStateTime::ACT    27888166000                       # Time in different power states
system.mem_ctrls1.memoryStateTime::ACT_PDN            0                       # Time in different power states
system.mem_ctrls1.actEnergy::0              192243240                       # Energy for activate commands per rank (pJ)
system.mem_ctrls1.actEnergy::1              190406160                       # Energy for activate commands per rank (pJ)
system.mem_ctrls1.preEnergy::0              104894625                       # Energy for precharge commands per rank (pJ)
system.mem_ctrls1.preEnergy::1              103892250                       # Energy for precharge commands per rank (pJ)
system.mem_ctrls1.readEnergy::0             300565200                       # Energy for read commands per rank (pJ)
system.mem_ctrls1.readEnergy::1             294067800                       # Energy for read commands per rank (pJ)
system.mem_ctrls1.writeEnergy::0            195929280                       # Energy for write commands per rank (pJ)
system.mem_ctrls1.writeEnergy::1            197406720                       # Energy for write commands per rank (pJ)
system.mem_ctrls1.refreshEnergy::0         2484824160                       # Energy for refresh commands per rank (pJ)
system.mem_ctrls1.refreshEnergy::1         2484824160                       # Energy for refresh commands per rank (pJ)
system.mem_ctrls1.actBackEnergy::0        15196458780                       # Energy for active background per rank (pJ)
system.mem_ctrls1.actBackEnergy::1        14450478975                       # Energy for active background per rank (pJ)
system.mem_ctrls1.preBackEnergy::0         9496099500                       # Energy for precharge background per rank (pJ)
system.mem_ctrls1.preBackEnergy::1        10150467750                       # Energy for precharge background per rank (pJ)
system.mem_ctrls1.totalEnergy::0          27971014785                       # Total energy per rank (pJ)
system.mem_ctrls1.totalEnergy::1          27871543815                       # Total energy per rank (pJ)
system.mem_ctrls1.averagePower::0          735.230387                       # Core power per rank (mW)
system.mem_ctrls1.averagePower::1          732.615749                       # Core power per rank (mW)
system.mem_ctrls2.bytes_read::ruby.dir_cntrl2      4880512                       # Number of bytes read from this memory
system.mem_ctrls2.bytes_read::total           4880512                       # Number of bytes read from this memory
system.mem_ctrls2.bytes_written::ruby.dir_cntrl2      3885248                       # Number of bytes written to this memory
system.mem_ctrls2.bytes_written::total        3885248                       # Number of bytes written to this memory
system.mem_ctrls2.num_reads::ruby.dir_cntrl2        76258                       # Number of read requests responded to by this memory
system.mem_ctrls2.num_reads::total              76258                       # Number of read requests responded to by this memory
system.mem_ctrls2.num_writes::ruby.dir_cntrl2        60707                       # Number of write requests responded to by this memory
system.mem_ctrls2.num_writes::total             60707                       # Number of write requests responded to by this memory
system.mem_ctrls2.bw_read::ruby.dir_cntrl2    128261249                       # Total read bandwidth from this memory (bytes/s)
system.mem_ctrls2.bw_read::total            128261249                       # Total read bandwidth from this memory (bytes/s)
system.mem_ctrls2.bw_write::ruby.dir_cntrl2    102105427                       # Write bandwidth from this memory (bytes/s)
system.mem_ctrls2.bw_write::total           102105427                       # Write bandwidth from this memory (bytes/s)
system.mem_ctrls2.bw_total::ruby.dir_cntrl2    230366675                       # Total bandwidth to/from this memory (bytes/s)
system.mem_ctrls2.bw_total::total           230366675                       # Total bandwidth to/from this memory (bytes/s)
system.mem_ctrls2.readReqs                      76258                       # Number of read requests accepted
system.mem_ctrls2.writeReqs                     60707                       # Number of write requests accepted
system.mem_ctrls2.readBursts                    76258                       # Number of DRAM read bursts, including those serviced by the write queue
system.mem_ctrls2.writeBursts                   60707                       # Number of DRAM write bursts, including those merged in the write queue
system.mem_ctrls2.bytesReadDRAM               4879552                       # Total number of bytes read from DRAM
system.mem_ctrls2.bytesReadWrQ                    960                       # Total number of bytes read from write queue
system.mem_ctrls2.bytesWritten                3885248                       # Total number of bytes written to DRAM
system.mem_ctrls2.bytesReadSys                4880512                       # Total read bytes from the system interface side
system.mem_ctrls2.bytesWrittenSys             3885248                       # Total written bytes from the system interface side
system.mem_ctrls2.servicedByWrQ                    15                       # Number of DRAM read bursts serviced by the write queue
system.mem_ctrls2.mergedWrBursts                    0                       # Number of DRAM write bursts merged with an existing one
system.mem_ctrls2.neitherReadNorWriteReqs            0                       # Number of requests that are neither read nor write
system.mem_ctrls2.perBankRdBursts::0             4305                       # Per bank write bursts
system.mem_ctrls2.perBankRdBursts::1             4752                       # Per bank write bursts
system.mem_ctrls2.perBankRdBursts::2             4466                       # Per bank write bursts
system.mem_ctrls2.perBankRdBursts::3             4903                       # Per bank write bursts
system.mem_ctrls2.perBankRdBursts::4             4778                       # Per bank write bursts
system.mem_ctrls2.perBankRdBursts::5             5294                       # Per bank write bursts
system.mem_ctrls2.perBankRdBursts::6             4864                       # Per bank write bursts
system.mem_ctrls2.perBankRdBursts::7             5163                       # Per bank write bursts
system.mem_ctrls2.perBankRdBursts::8             4920                       # Per bank write bursts
system.mem_ctrls2.perBankRdBursts::9             5100                       # Per bank write bursts
system.mem_ctrls2.perBankRdBursts::10            4520                       # Per bank write bursts
system.mem_ctrls2.perBankRdBursts::11            4768                       # Per bank write bursts
system.mem_ctrls2.perBankRdBursts::12            4492                       # Per bank write bursts
system.mem_ctrls2.perBankRdBursts::13            4542                       # Per bank write bursts
system.mem_ctrls2.perBankRdBursts::14            4623                       # Per bank write bursts
system.mem_ctrls2.perBankRdBursts::15            4753                       # Per bank write bursts
system.mem_ctrls2.perBankWrBursts::0             3556                       # Per bank write bursts
system.mem_ctrls2.perBankWrBursts::1             3508                       # Per bank write bursts
system.mem_ctrls2.perBankWrBursts::2             3568                       # Per bank write bursts
system.mem_ctrls2.perBankWrBursts::3             3732                       # Per bank write bursts
system.mem_ctrls2.perBankWrBursts::4             3787                       # Per bank write bursts
system.mem_ctrls2.perBankWrBursts::5             4117                       # Per bank write bursts
system.mem_ctrls2.perBankWrBursts::6             3844                       # Per bank write bursts
system.mem_ctrls2.perBankWrBursts::7             4114                       # Per bank write bursts
system.mem_ctrls2.perBankWrBursts::8             3970                       # Per bank write bursts
system.mem_ctrls2.perBankWrBursts::9             4044                       # Per bank write bursts
system.mem_ctrls2.perBankWrBursts::10            3616                       # Per bank write bursts
system.mem_ctrls2.perBankWrBursts::11            3577                       # Per bank write bursts
system.mem_ctrls2.perBankWrBursts::12            3720                       # Per bank write bursts
system.mem_ctrls2.perBankWrBursts::13            3822                       # Per bank write bursts
system.mem_ctrls2.perBankWrBursts::14            3894                       # Per bank write bursts
system.mem_ctrls2.perBankWrBursts::15            3838                       # Per bank write bursts
system.mem_ctrls2.numRdRetry                        0                       # Number of times read queue was full causing retry
system.mem_ctrls2.numWrRetry                      124                       # Number of times write queue was full causing retry
system.mem_ctrls2.totGap                  38051111000                       # Total gap between requests
system.mem_ctrls2.readPktSize::0                    0                       # Read request sizes (log2)
system.mem_ctrls2.readPktSize::1                    0                       # Read request sizes (log2)
system.mem_ctrls2.readPktSize::2                    0                       # Read request sizes (log2)
system.mem_ctrls2.readPktSize::3                    0                       # Read request sizes (log2)
system.mem_ctrls2.readPktSize::4                    0                       # Read request sizes (log2)
system.mem_ctrls2.readPktSize::5                    0                       # Read request sizes (log2)
system.mem_ctrls2.readPktSize::6                76258                       # Read request sizes (log2)
system.mem_ctrls2.writePktSize::0                   0                       # Write request sizes (log2)
system.mem_ctrls2.writePktSize::1                   0                       # Write request sizes (log2)
system.mem_ctrls2.writePktSize::2                   0                       # Write request sizes (log2)
system.mem_ctrls2.writePktSize::3                   0                       # Write request sizes (log2)
system.mem_ctrls2.writePktSize::4                   0                       # Write request sizes (log2)
system.mem_ctrls2.writePktSize::5                   0                       # Write request sizes (log2)
system.mem_ctrls2.writePktSize::6               60707                       # Write request sizes (log2)
system.mem_ctrls2.rdQLenPdf::0                  59345                       # What read queue length does an incoming req see
system.mem_ctrls2.rdQLenPdf::1                   9985                       # What read queue length does an incoming req see
system.mem_ctrls2.rdQLenPdf::2                   3286                       # What read queue length does an incoming req see
system.mem_ctrls2.rdQLenPdf::3                   1483                       # What read queue length does an incoming req see
system.mem_ctrls2.rdQLenPdf::4                    762                       # What read queue length does an incoming req see
system.mem_ctrls2.rdQLenPdf::5                    459                       # What read queue length does an incoming req see
system.mem_ctrls2.rdQLenPdf::6                    277                       # What read queue length does an incoming req see
system.mem_ctrls2.rdQLenPdf::7                    174                       # What read queue length does an incoming req see
system.mem_ctrls2.rdQLenPdf::8                    109                       # What read queue length does an incoming req see
system.mem_ctrls2.rdQLenPdf::9                     80                       # What read queue length does an incoming req see
system.mem_ctrls2.rdQLenPdf::10                    59                       # What read queue length does an incoming req see
system.mem_ctrls2.rdQLenPdf::11                    43                       # What read queue length does an incoming req see
system.mem_ctrls2.rdQLenPdf::12                    42                       # What read queue length does an incoming req see
system.mem_ctrls2.rdQLenPdf::13                    27                       # What read queue length does an incoming req see
system.mem_ctrls2.rdQLenPdf::14                    28                       # What read queue length does an incoming req see
system.mem_ctrls2.rdQLenPdf::15                    20                       # What read queue length does an incoming req see
system.mem_ctrls2.rdQLenPdf::16                    15                       # What read queue length does an incoming req see
system.mem_ctrls2.rdQLenPdf::17                    11                       # What read queue length does an incoming req see
system.mem_ctrls2.rdQLenPdf::18                    10                       # What read queue length does an incoming req see
system.mem_ctrls2.rdQLenPdf::19                     8                       # What read queue length does an incoming req see
system.mem_ctrls2.rdQLenPdf::20                     6                       # What read queue length does an incoming req see
system.mem_ctrls2.rdQLenPdf::21                     6                       # What read queue length does an incoming req see
system.mem_ctrls2.rdQLenPdf::22                     5                       # What read queue length does an incoming req see
system.mem_ctrls2.rdQLenPdf::23                     2                       # What read queue length does an incoming req see
system.mem_ctrls2.rdQLenPdf::24                     1                       # What read queue length does an incoming req see
system.mem_ctrls2.rdQLenPdf::25                     0                       # What read queue length does an incoming req see
system.mem_ctrls2.rdQLenPdf::26                     0                       # What read queue length does an incoming req see
system.mem_ctrls2.rdQLenPdf::27                     0                       # What read queue length does an incoming req see
system.mem_ctrls2.rdQLenPdf::28                     0                       # What read queue length does an incoming req see
system.mem_ctrls2.rdQLenPdf::29                     0                       # What read queue length does an incoming req see
system.mem_ctrls2.rdQLenPdf::30                     0                       # What read queue length does an incoming req see
system.mem_ctrls2.rdQLenPdf::31                     0                       # What read queue length does an incoming req see
system.mem_ctrls2.wrQLenPdf::0                  11298                       # What write queue length does an incoming req see
system.mem_ctrls2.wrQLenPdf::1                  12319                       # What write queue length does an incoming req see
system.mem_ctrls2.wrQLenPdf::2                  12365                       # What write queue length does an incoming req see
system.mem_ctrls2.wrQLenPdf::3                  12152                       # What write queue length does an incoming req see
system.mem_ctrls2.wrQLenPdf::4                  11757                       # What write queue length does an incoming req see
system.mem_ctrls2.wrQLenPdf::5                    415                       # What write queue length does an incoming req see
system.mem_ctrls2.wrQLenPdf::6                    177                       # What write queue length does an incoming req see
system.mem_ctrls2.wrQLenPdf::7                    224                       # What write queue length does an incoming req see
system.mem_ctrls2.bytesPerActivate::samples        50751                       # Bytes accessed per row activation
system.mem_ctrls2.bytesPerActivate::mean   172.671750                       # Bytes accessed per row activation
system.mem_ctrls2.bytesPerActivate::gmean   122.411063                       # Bytes accessed per row activation
system.mem_ctrls2.bytesPerActivate::stdev   177.901828                       # Bytes accessed per row activation
system.mem_ctrls2.bytesPerActivate::0-127        25425     50.10%     50.10% # Bytes accessed per row activation
system.mem_ctrls2.bytesPerActivate::128-255        12793     25.21%     75.30% # Bytes accessed per row activation
system.mem_ctrls2.bytesPerActivate::256-383         7590     14.96%     90.26% # Bytes accessed per row activation
system.mem_ctrls2.bytesPerActivate::384-511         1875      3.69%     93.95% # Bytes accessed per row activation
system.mem_ctrls2.bytesPerActivate::512-639         1150      2.27%     96.22% # Bytes accessed per row activation
system.mem_ctrls2.bytesPerActivate::640-767          594      1.17%     97.39% # Bytes accessed per row activation
system.mem_ctrls2.bytesPerActivate::768-895          449      0.88%     98.28% # Bytes accessed per row activation
system.mem_ctrls2.bytesPerActivate::896-1023          296      0.58%     98.86% # Bytes accessed per row activation
system.mem_ctrls2.bytesPerActivate::1024-1151          579      1.14%    100.00% # Bytes accessed per row activation
system.mem_ctrls2.bytesPerActivate::total        50751                       # Bytes accessed per row activation
system.mem_ctrls2.rdPerTurnAround::samples        11321                       # Reads before turning the bus around for writes
system.mem_ctrls2.rdPerTurnAround::mean      6.734564                       # Reads before turning the bus around for writes
system.mem_ctrls2.rdPerTurnAround::stdev    29.961287                       # Reads before turning the bus around for writes
system.mem_ctrls2.rdPerTurnAround::0-127        11316     99.96%     99.96% # Reads before turning the bus around for writes
system.mem_ctrls2.rdPerTurnAround::128-255            3      0.03%     99.98% # Reads before turning the bus around for writes
system.mem_ctrls2.rdPerTurnAround::1152-1279            1      0.01%     99.99% # Reads before turning the bus around for writes
system.mem_ctrls2.rdPerTurnAround::2816-2943            1      0.01%    100.00% # Reads before turning the bus around for writes
system.mem_ctrls2.rdPerTurnAround::total        11321                       # Reads before turning the bus around for writes
system.mem_ctrls2.wrPerTurnAround::samples        11321                       # Writes before turning the bus around for reads
system.mem_ctrls2.wrPerTurnAround::mean      5.362335                       # Writes before turning the bus around for reads
system.mem_ctrls2.wrPerTurnAround::gmean     5.284616                       # Writes before turning the bus around for reads
system.mem_ctrls2.wrPerTurnAround::stdev     1.143027                       # Writes before turning the bus around for reads
system.mem_ctrls2.wrPerTurnAround::4-7          10833     95.69%     95.69% # Writes before turning the bus around for reads
system.mem_ctrls2.wrPerTurnAround::8-11           398      3.52%     99.21% # Writes before turning the bus around for reads
system.mem_ctrls2.wrPerTurnAround::12-15           66      0.58%     99.79% # Writes before turning the bus around for reads
system.mem_ctrls2.wrPerTurnAround::16-19           24      0.21%    100.00% # Writes before turning the bus around for reads
system.mem_ctrls2.wrPerTurnAround::total        11321                       # Writes before turning the bus around for reads
system.mem_ctrls2.totQLat                  1807080638                       # Total ticks spent queuing
system.mem_ctrls2.totMemAccLat             3236636888                       # Total ticks spent from burst creation until serviced by the DRAM
system.mem_ctrls2.totBusLat                 381215000                       # Total ticks spent in databus transfers
system.mem_ctrls2.avgQLat                    23701.59                       # Average queueing delay per DRAM burst
system.mem_ctrls2.avgBusLat                   5000.00                       # Average bus latency per DRAM burst
system.mem_ctrls2.avgMemAccLat               42451.59                       # Average memory access latency per DRAM burst
system.mem_ctrls2.avgRdBW                      128.24                       # Average DRAM read bandwidth in MiByte/s
system.mem_ctrls2.avgWrBW                      102.11                       # Average achieved write bandwidth in MiByte/s
system.mem_ctrls2.avgRdBWSys                   128.26                       # Average system read bandwidth in MiByte/s
system.mem_ctrls2.avgWrBWSys                   102.11                       # Average system write bandwidth in MiByte/s
system.mem_ctrls2.peakBW                     12800.00                       # Theoretical peak bandwidth in MiByte/s
system.mem_ctrls2.busUtil                        1.80                       # Data bus utilization in percentage
system.mem_ctrls2.busUtilRead                    1.00                       # Data bus utilization in percentage for reads
system.mem_ctrls2.busUtilWrite                   0.80                       # Data bus utilization in percentage for writes
system.mem_ctrls2.avgRdQLen                      1.07                       # Average read queue length when enqueuing
system.mem_ctrls2.avgWrQLen                      2.93                       # Average write queue length when enqueuing
system.mem_ctrls2.readRowHits                   52727                       # Number of row buffer hits during reads
system.mem_ctrls2.writeRowHits                  33462                       # Number of row buffer hits during writes
system.mem_ctrls2.readRowHitRate                69.16                       # Row buffer hit rate for reads
system.mem_ctrls2.writeRowHitRate               55.12                       # Row buffer hit rate for writes
system.mem_ctrls2.avgGap                    277816.31                       # Average gap between requests
system.mem_ctrls2.pageHitRate                   62.93                       # Row buffer hit rate, read and write combined
system.mem_ctrls2.memoryStateTime::IDLE    8879001500                       # Time in different power states
system.mem_ctrls2.memoryStateTime::REF     1270360000                       # Time in different power states
system.mem_ctrls2.memoryStateTime::PRE_PDN            0                       # Time in different power states
system.mem_ctrls2.memoryStateTime::ACT    27894695000                       # Time in different power states
system.mem_ctrls2.memoryStateTime::ACT_PDN            0                       # Time in different power states
system.mem_ctrls2.actEnergy::0              192507840                       # Energy for activate commands per rank (pJ)
system.mem_ctrls2.actEnergy::1              191094120                       # Energy for activate commands per rank (pJ)
system.mem_ctrls2.preEnergy::0              105039000                       # Energy for precharge commands per rank (pJ)
system.mem_ctrls2.preEnergy::1              104267625                       # Energy for precharge commands per rank (pJ)
system.mem_ctrls2.readEnergy::0             300417000                       # Energy for read commands per rank (pJ)
system.mem_ctrls2.readEnergy::1             294091200                       # Energy for read commands per rank (pJ)
system.mem_ctrls2.writeEnergy::0            195858000                       # Energy for write commands per rank (pJ)
system.mem_ctrls2.writeEnergy::1            197426160                       # Energy for write commands per rank (pJ)
system.mem_ctrls2.refreshEnergy::0         2484824160                       # Energy for refresh commands per rank (pJ)
system.mem_ctrls2.refreshEnergy::1         2484824160                       # Energy for refresh commands per rank (pJ)
system.mem_ctrls2.actBackEnergy::0        15074661465                       # Energy for active background per rank (pJ)
system.mem_ctrls2.actBackEnergy::1        14578755480                       # Energy for active background per rank (pJ)
system.mem_ctrls2.preBackEnergy::0         9602939250                       # Energy for precharge background per rank (pJ)
system.mem_ctrls2.preBackEnergy::1        10037944500                       # Energy for precharge background per rank (pJ)
system.mem_ctrls2.totalEnergy::0          27956246715                       # Total energy per rank (pJ)
system.mem_ctrls2.totalEnergy::1          27888403245                       # Total energy per rank (pJ)
system.mem_ctrls2.averagePower::0          734.842202                       # Core power per rank (mW)
system.mem_ctrls2.averagePower::1          733.058907                       # Core power per rank (mW)
system.mem_ctrls3.bytes_read::ruby.dir_cntrl3      4858752                       # Number of bytes read from this memory
system.mem_ctrls3.bytes_read::total           4858752                       # Number of bytes read from this memory
system.mem_ctrls3.bytes_written::ruby.dir_cntrl3      3880256                       # Number of bytes written to this memory
system.mem_ctrls3.bytes_written::total        3880256                       # Number of bytes written to this memory
system.mem_ctrls3.num_reads::ruby.dir_cntrl3        75918                       # Number of read requests responded to by this memory
system.mem_ctrls3.num_reads::total              75918                       # Number of read requests responded to by this memory
system.mem_ctrls3.num_writes::ruby.dir_cntrl3        60629                       # Number of write requests responded to by this memory
system.mem_ctrls3.num_writes::total             60629                       # Number of write requests responded to by this memory
system.mem_ctrls3.bw_read::ruby.dir_cntrl3    127689390                       # Total read bandwidth from this memory (bytes/s)
system.mem_ctrls3.bw_read::total            127689390                       # Total read bandwidth from this memory (bytes/s)
system.mem_ctrls3.bw_write::ruby.dir_cntrl3    101974235                       # Write bandwidth from this memory (bytes/s)
system.mem_ctrls3.bw_write::total           101974235                       # Write bandwidth from this memory (bytes/s)
system.mem_ctrls3.bw_total::ruby.dir_cntrl3    229663625                       # Total bandwidth to/from this memory (bytes/s)
system.mem_ctrls3.bw_total::total           229663625                       # Total bandwidth to/from this memory (bytes/s)
system.mem_ctrls3.readReqs                      75919                       # Number of read requests accepted
system.mem_ctrls3.writeReqs                     60629                       # Number of write requests accepted
system.mem_ctrls3.readBursts                    75919                       # Number of DRAM read bursts, including those serviced by the write queue
system.mem_ctrls3.writeBursts                   60629                       # Number of DRAM write bursts, including those merged in the write queue
system.mem_ctrls3.bytesReadDRAM               4858240                       # Total number of bytes read from DRAM
system.mem_ctrls3.bytesReadWrQ                    576                       # Total number of bytes read from write queue
system.mem_ctrls3.bytesWritten                3880192                       # Total number of bytes written to DRAM
system.mem_ctrls3.bytesReadSys                4858816                       # Total read bytes from the system interface side
system.mem_ctrls3.bytesWrittenSys             3880256                       # Total written bytes from the system interface side
system.mem_ctrls3.servicedByWrQ                     9                       # Number of DRAM read bursts serviced by the write queue
system.mem_ctrls3.mergedWrBursts                    0                       # Number of DRAM write bursts merged with an existing one
system.mem_ctrls3.neitherReadNorWriteReqs            0                       # Number of requests that are neither read nor write
system.mem_ctrls3.perBankRdBursts::0             4285                       # Per bank write bursts
system.mem_ctrls3.perBankRdBursts::1             4717                       # Per bank write bursts
system.mem_ctrls3.perBankRdBursts::2             4421                       # Per bank write bursts
system.mem_ctrls3.perBankRdBursts::3             4860                       # Per bank write bursts
system.mem_ctrls3.perBankRdBursts::4             4737                       # Per bank write bursts
system.mem_ctrls3.perBankRdBursts::5             5240                       # Per bank write bursts
system.mem_ctrls3.perBankRdBursts::6             4870                       # Per bank write bursts
system.mem_ctrls3.perBankRdBursts::7             5153                       # Per bank write bursts
system.mem_ctrls3.perBankRdBursts::8             4925                       # Per bank write bursts
system.mem_ctrls3.perBankRdBursts::9             5078                       # Per bank write bursts
system.mem_ctrls3.perBankRdBursts::10            4522                       # Per bank write bursts
system.mem_ctrls3.perBankRdBursts::11            4731                       # Per bank write bursts
system.mem_ctrls3.perBankRdBursts::12            4482                       # Per bank write bursts
system.mem_ctrls3.perBankRdBursts::13            4517                       # Per bank write bursts
system.mem_ctrls3.perBankRdBursts::14            4644                       # Per bank write bursts
system.mem_ctrls3.perBankRdBursts::15            4728                       # Per bank write bursts
system.mem_ctrls3.perBankWrBursts::0             3556                       # Per bank write bursts
system.mem_ctrls3.perBankWrBursts::1             3504                       # Per bank write bursts
system.mem_ctrls3.perBankWrBursts::2             3568                       # Per bank write bursts
system.mem_ctrls3.perBankWrBursts::3             3718                       # Per bank write bursts
system.mem_ctrls3.perBankWrBursts::4             3786                       # Per bank write bursts
system.mem_ctrls3.perBankWrBursts::5             4100                       # Per bank write bursts
system.mem_ctrls3.perBankWrBursts::6             3835                       # Per bank write bursts
system.mem_ctrls3.perBankWrBursts::7             4100                       # Per bank write bursts
system.mem_ctrls3.perBankWrBursts::8             3974                       # Per bank write bursts
system.mem_ctrls3.perBankWrBursts::9             4038                       # Per bank write bursts
system.mem_ctrls3.perBankWrBursts::10            3607                       # Per bank write bursts
system.mem_ctrls3.perBankWrBursts::11            3581                       # Per bank write bursts
system.mem_ctrls3.perBankWrBursts::12            3717                       # Per bank write bursts
system.mem_ctrls3.perBankWrBursts::13            3823                       # Per bank write bursts
system.mem_ctrls3.perBankWrBursts::14            3894                       # Per bank write bursts
system.mem_ctrls3.perBankWrBursts::15            3827                       # Per bank write bursts
system.mem_ctrls3.numRdRetry                        6                       # Number of times read queue was full causing retry
system.mem_ctrls3.numWrRetry                      143                       # Number of times write queue was full causing retry
system.mem_ctrls3.totGap                  38050588000                       # Total gap between requests
system.mem_ctrls3.readPktSize::0                    0                       # Read request sizes (log2)
system.mem_ctrls3.readPktSize::1                    0                       # Read request sizes (log2)
system.mem_ctrls3.readPktSize::2                    0                       # Read request sizes (log2)
system.mem_ctrls3.readPktSize::3                    0                       # Read request sizes (log2)
system.mem_ctrls3.readPktSize::4                    0                       # Read request sizes (log2)
system.mem_ctrls3.readPktSize::5                    0                       # Read request sizes (log2)
system.mem_ctrls3.readPktSize::6                75919                       # Read request sizes (log2)
system.mem_ctrls3.writePktSize::0                   0                       # Write request sizes (log2)
system.mem_ctrls3.writePktSize::1                   0                       # Write request sizes (log2)
system.mem_ctrls3.writePktSize::2                   0                       # Write request sizes (log2)
system.mem_ctrls3.writePktSize::3                   0                       # Write request sizes (log2)
system.mem_ctrls3.writePktSize::4                   0                       # Write request sizes (log2)
system.mem_ctrls3.writePktSize::5                   0                       # Write request sizes (log2)
system.mem_ctrls3.writePktSize::6               60629                       # Write request sizes (log2)
system.mem_ctrls3.rdQLenPdf::0                  58992                       # What read queue length does an incoming req see
system.mem_ctrls3.rdQLenPdf::1                   9998                       # What read queue length does an incoming req see
system.mem_ctrls3.rdQLenPdf::2                   3293                       # What read queue length does an incoming req see
system.mem_ctrls3.rdQLenPdf::3                   1453                       # What read queue length does an incoming req see
system.mem_ctrls3.rdQLenPdf::4                    789                       # What read queue length does an incoming req see
system.mem_ctrls3.rdQLenPdf::5                    463                       # What read queue length does an incoming req see
system.mem_ctrls3.rdQLenPdf::6                    274                       # What read queue length does an incoming req see
system.mem_ctrls3.rdQLenPdf::7                    185                       # What read queue length does an incoming req see
system.mem_ctrls3.rdQLenPdf::8                     97                       # What read queue length does an incoming req see
system.mem_ctrls3.rdQLenPdf::9                     62                       # What read queue length does an incoming req see
system.mem_ctrls3.rdQLenPdf::10                    49                       # What read queue length does an incoming req see
system.mem_ctrls3.rdQLenPdf::11                    39                       # What read queue length does an incoming req see
system.mem_ctrls3.rdQLenPdf::12                    33                       # What read queue length does an incoming req see
system.mem_ctrls3.rdQLenPdf::13                    23                       # What read queue length does an incoming req see
system.mem_ctrls3.rdQLenPdf::14                    22                       # What read queue length does an incoming req see
system.mem_ctrls3.rdQLenPdf::15                    22                       # What read queue length does an incoming req see
system.mem_ctrls3.rdQLenPdf::16                    16                       # What read queue length does an incoming req see
system.mem_ctrls3.rdQLenPdf::17                    16                       # What read queue length does an incoming req see
system.mem_ctrls3.rdQLenPdf::18                    12                       # What read queue length does an incoming req see
system.mem_ctrls3.rdQLenPdf::19                    11                       # What read queue length does an incoming req see
system.mem_ctrls3.rdQLenPdf::20                    12                       # What read queue length does an incoming req see
system.mem_ctrls3.rdQLenPdf::21                     8                       # What read queue length does an incoming req see
system.mem_ctrls3.rdQLenPdf::22                     7                       # What read queue length does an incoming req see
system.mem_ctrls3.rdQLenPdf::23                     7                       # What read queue length does an incoming req see
system.mem_ctrls3.rdQLenPdf::24                    10                       # What read queue length does an incoming req see
[...]
system.ruby.L2Cache_Controller.MT_IIB.WB_Data_clean::total        20623                      
system.ruby.L2Cache_Controller.MT_IIB.Unblock |          43      0.71%      0.71% |          80      1.32%      2.03% |         155      2.56%      4.59% |         192      3.17%      7.77% |         110      1.82%      9.59% |         215      3.55%     13.14% |         213      3.52%     16.66% |         199      3.29%     19.95% |         268      4.43%     24.38% |         195      3.22%     27.60% |         181      2.99%     30.59% |         246      4.07%     34.66% |         164      2.71%     37.37% |         227      3.75%     41.12% |         156      2.58%     43.70% |          96      1.59%     45.28% |         204      3.37%     48.65% |         188      3.11%     51.76% |         237      3.92%     55.68% |         248      4.10%     59.78% |         289      4.78%     64.55% |         173      2.86%     67.41% |         137      2.26%     69.67% |         148      2.45%     72.12% |         255      4.21%     76.33% |         157      2.59%     78.93% |         213      3.52%     82.45% |         233      3.85%     86.30% |         149      2.46%     88.76% |         254      4.20%     92.96% |         145      2.40%     95.36% |         281      4.64%    100.00%
system.ruby.L2Cache_Controller.MT_IIB.Unblock::total         6051                      
system.ruby.L2Cache_Controller.MT_IB.L1_GETS |           0      0.00%      0.00% |           0      0.00%      0.00% |           0      0.00%      0.00% |           0      0.00%      0.00% |           0      0.00%      0.00% |           0      0.00%      0.00% |           1    100.00%    100.00% |           0      0.00%    100.00% |           0      0.00%    100.00% |           0      0.00%    100.00% |           0      0.00%    100.00% |           0      0.00%    100.00% |           0      0.00%    100.00% |           0      0.00%    100.00% |           0      0.00%    100.00% |           0      0.00%    100.00% |           0      0.00%    100.00% |           0      0.00%    100.00% |           0      0.00%    100.00% |           0      0.00%    100.00% |           0      0.00%    100.00% |           0      0.00%    100.00% |           0      0.00%    100.00% |           0      0.00%    100.00% |           0      0.00%    100.00% |           0      0.00%    100.00% |           0      0.00%    100.00% |           0      0.00%    100.00% |           0      0.00%    100.00% |           0      0.00%    100.00% |           0      0.00%    100.00% |           0      0.00%    100.00%
system.ruby.L2Cache_Controller.MT_IB.L1_GETS::total            1                      
system.ruby.L2Cache_Controller.MT_IB.L1_GETX |           0      0.00%      0.00% |           0      0.00%      0.00% |           0      0.00%      0.00% |           0      0.00%      0.00% |           0      0.00%      0.00% |           0      0.00%      0.00% |           0      0.00%      0.00% |           0      0.00%      0.00% |           0      0.00%      0.00% |           0      0.00%      0.00% |           0      0.00%      0.00% |           0      0.00%      0.00% |           0      0.00%      0.00% |           0      0.00%      0.00% |           0      0.00%      0.00% |           0      0.00%      0.00% |           0      0.00%      0.00% |           0      0.00%      0.00% |           0      0.00%      0.00% |           0      0.00%      0.00% |           0      0.00%      0.00% |           1    100.00%    100.00% |           0      0.00%    100.00% |           0      0.00%    100.00% |           0      0.00%    100.00% |           0      0.00%    100.00% |           0      0.00%    100.00% |           0      0.00%    100.00% |           0      0.00%    100.00% |           0      0.00%    100.00% |           0      0.00%    100.00% |           0      0.00%    100.00%
system.ruby.L2Cache_Controller.MT_IB.L1_GETX::total            1                      
system.ruby.L2Cache_Controller.MT_IB.L1_UPGRADE |           0      0.00%      0.00% |           0      0.00%      0.00% |           0      0.00%      0.00% |           0      0.00%      0.00% |           0      0.00%      0.00% |           0      0.00%      0.00% |           0      0.00%      0.00% |           0      0.00%      0.00% |           1      3.85%      3.85% |           0      0.00%      3.85% |           1      3.85%      7.69% |           1      3.85%     11.54% |           2      7.69%     19.23% |           0      0.00%     19.23% |           1      3.85%     23.08% |           0      0.00%     23.08% |           0      0.00%     23.08% |           1      3.85%     26.92% |           0      0.00%     26.92% |           0      0.00%     26.92% |           0      0.00%     26.92% |           0      0.00%     26.92% |           0      0.00%     26.92% |           1      3.85%     30.77% |           3     11.54%     42.31% |           3     11.54%     53.85% |           3     11.54%     65.38% |           6     23.08%     88.46% |           0      0.00%     88.46% |           2      7.69%     96.15% |           0      0.00%     96.15% |           1      3.85%    100.00%
system.ruby.L2Cache_Controller.MT_IB.L1_UPGRADE::total           26                      
system.ruby.L2Cache_Controller.MT_IB.WB_Data |          42      0.74%      0.74% |          76      1.35%      2.09% |         150      2.66%      4.75% |         180      3.19%      7.93% |         103      1.82%      9.76% |         194      3.44%     13.19% |         205      3.63%     16.82% |         182      3.22%     20.05% |         257      4.55%     24.60% |         185      3.28%     27.87% |         168      2.98%     30.85% |         227      4.02%     34.87% |         152      2.69%     37.56% |         207      3.67%     41.23% |         144      2.55%     43.78% |          90      1.59%     45.37% |         188      3.33%     48.70% |         169      2.99%     51.69% |         218      3.86%     55.55% |         227      4.02%     59.57% |         271      4.80%     64.37% |         164      2.90%     67.27% |         127      2.25%     69.52% |         140      2.48%     72.00% |         247      4.37%     76.38% |         144      2.55%     78.93% |         201      3.56%     82.49% |         221      3.91%     86.40% |         138      2.44%     88.84% |         233      4.13%     92.97% |         136      2.41%     95.38% |         261      4.62%    100.00%
system.ruby.L2Cache_Controller.MT_IB.WB_Data::total         5647                      
system.ruby.L2Cache_Controller.MT_IB.WB_Data_clean |           1      0.25%      0.25% |           4      0.99%      1.24% |           5      1.24%      2.48% |          12      2.97%      5.45% |           7      1.73%      7.18% |          21      5.20%     12.38% |           8      1.98%     14.36% |          17      4.21%     18.56% |          11      2.72%     21.29% |          10      2.48%     23.76% |          13      3.22%     26.98% |          19      4.70%     31.68% |          12      2.97%     34.65% |          20      4.95%     39.60% |          12      2.97%     42.57% |           6      1.49%     44.06% |          16      3.96%     48.02% |          19      4.70%     52.72% |          19      4.70%     57.43% |          21      5.20%     62.62% |          18      4.46%     67.08% |           9      2.23%     69.31% |          10      2.48%     71.78% |           8      1.98%     73.76% |           8      1.98%     75.74% |          13      3.22%     78.96% |          12      2.97%     81.93% |          12      2.97%     84.90% |          11      2.72%     87.62% |          21      5.20%     92.82% |           9      2.23%     95.05% |          20      4.95%    100.00%
system.ruby.L2Cache_Controller.MT_IB.WB_Data_clean::total          404                      
system.ruby.L2Cache_Controller.MT_SB.L1_GETS |          30      2.95%      2.95% |          38      3.73%      6.68% |          34      3.34%     10.02% |          38      3.73%     13.75% |          40      3.93%     17.68% |          35      3.44%     21.12% |          25      2.46%     23.58% |          32      3.14%     26.72% |          22      2.16%     28.88% |          45      4.42%     33.30% |          37      3.63%     36.94% |          29      2.85%     39.78% |          31      3.05%     42.83% |          38      3.73%     46.56% |          33      3.24%     49.80% |          28      2.75%     52.55% |          32      3.14%     55.70% |          28      2.75%     58.45% |          35      3.44%     61.89% |          32      3.14%     65.03% |          32      3.14%     68.17% |          23      2.26%     70.43% |          35      3.44%     73.87% |          31      3.05%     76.92% |          21      2.06%     78.98% |          34      3.34%     82.32% |          30      2.95%     85.27% |          36      3.54%     88.80% |          27      2.65%     91.45% |          33      3.24%     94.70% |          22      2.16%     96.86% |          32      3.14%    100.00%
system.ruby.L2Cache_Controller.MT_SB.L1_GETS::total         1018                      
system.ruby.L2Cache_Controller.MT_SB.L1_GETX |           9      1.63%      1.63% |          28      5.08%      6.72% |          15      2.72%      9.44% |          16      2.90%     12.34% |          13      2.36%     14.70% |          24      4.36%     19.06% |          11      2.00%     21.05% |          15      2.72%     23.77% |          15      2.72%     26.50% |          21      3.81%     30.31% |          17      3.09%     33.39% |          16      2.90%     36.30% |          12      2.18%     38.48% |          16      2.90%     41.38% |          23      4.17%     45.55% |          18      3.27%     48.82% |          20      3.63%     52.45% |          19      3.45%     55.90% |          20      3.63%     59.53% |          18      3.27%     62.79% |          24      4.36%     67.15% |          20      3.63%     70.78% |          12      2.18%     72.96% |          22      3.99%     76.95% |          14      2.54%     79.49% |          14      2.54%     82.03% |          21      3.81%     85.84% |          18      3.27%     89.11% |          13      2.36%     91.47% |          13      2.36%     93.83% |          19      3.45%     97.28% |          15      2.72%    100.00%
system.ruby.L2Cache_Controller.MT_SB.L1_GETX::total          551                      
system.ruby.L2Cache_Controller.MT_SB.L1_UPGRADE |           6      1.91%      1.91% |           9      2.87%      4.78% |          10      3.18%      7.96% |          10      3.18%     11.15% |          15      4.78%     15.92% |          10      3.18%     19.11% |           8      2.55%     21.66% |           9      2.87%     24.52% |          11      3.50%     28.03% |           9      2.87%     30.89% |          10      3.18%     34.08% |           7      2.23%     36.31% |          15      4.78%     41.08% |           5      1.59%     42.68% |          14      4.46%     47.13% |          10      3.18%     50.32% |          14      4.46%     54.78% |           7      2.23%     57.01% |           8      2.55%     59.55% |           8      2.55%     62.10% |          10      3.18%     65.29% |           6      1.91%     67.20% |          10      3.18%     70.38% |          15      4.78%     75.16% |           8      2.55%     77.71% |           8      2.55%     80.25% |          13      4.14%     84.39% |           8      2.55%     86.94% |           7      2.23%     89.17% |           9      2.87%     92.04% |          14      4.46%     96.50% |          11      3.50%    100.00%
system.ruby.L2Cache_Controller.MT_SB.L1_UPGRADE::total          314                      
system.ruby.L2Cache_Controller.MT_SB.L1_PUTX |           0      0.00%      0.00% |           0      0.00%      0.00% |           0      0.00%      0.00% |           0      0.00%      0.00% |           0      0.00%      0.00% |           0      0.00%      0.00% |           0      0.00%      0.00% |           0      0.00%      0.00% |           0      0.00%      0.00% |           0      0.00%      0.00% |           0      0.00%      0.00% |           0      0.00%      0.00% |           0      0.00%      0.00% |           0      0.00%      0.00% |           0      0.00%      0.00% |           0      0.00%      0.00% |           0      0.00%      0.00% |           0      0.00%      0.00% |           0      0.00%      0.00% |           0      0.00%      0.00% |           0      0.00%      0.00% |           0      0.00%      0.00% |           0      0.00%      0.00% |           0      0.00%      0.00% |           1    100.00%    100.00% |           0      0.00%    100.00% |           0      0.00%    100.00% |           0      0.00%    100.00% |           0      0.00%    100.00% |           0      0.00%    100.00% |           0      0.00%    100.00% |           0      0.00%    100.00%
system.ruby.L2Cache_Controller.MT_SB.L1_PUTX::total            1                      
system.ruby.L2Cache_Controller.MT_SB.Unblock |        7367      3.24%      3.24% |        7126      3.14%      6.38% |        7144      3.15%      9.53% |        7066      3.11%     12.64% |        7309      3.22%     15.86% |        7014      3.09%     18.95% |        7034      3.10%     22.05% |        7056      3.11%     25.16% |        7173      3.16%     28.32% |        7073      3.12%     31.43% |        7096      3.13%     34.56% |        7026      3.09%     37.65% |        7246      3.19%     40.84% |        7022      3.09%     43.94% |        7100      3.13%     47.06% |        7124      3.14%     50.20% |        7223      3.18%     53.38% |        7098      3.13%     56.51% |        6972      3.07%     59.58% |        6936      3.06%     62.64% |        7136      3.14%     65.78% |        7033      3.10%     68.88% |        7128      3.14%     72.02% |        7086      3.12%     75.14% |        7032      3.10%     78.23% |        7071      3.11%     81.35% |        7026      3.09%     84.44% |        6963      3.07%     87.51% |        7251      3.19%     90.70% |        6997      3.08%     93.79% |        7130      3.14%     96.93% |        6976      3.07%    100.00%
system.ruby.L2Cache_Controller.MT_SB.Unblock::total       227034                      
system.ruby.SimicsNetworkPortInterface_Controller.MessageSend |      318949     18.08%     18.08% |      882062     50.00%     68.08% |       69851      3.96%     72.04% |       75711      4.29%     76.33% |       70308      3.99%     80.32% |       75614      4.29%     84.60% |       70661      4.01%     88.61% |       75091      4.26%     92.86% |       60589      3.43%     96.30% |       65288      3.70%    100.00% |           0      0.00%    100.00% |           0      0.00%    100.00% |           0      0.00%    100.00% |           0      0.00%    100.00% |           0      0.00%    100.00% |           0      0.00%    100.00% |           0      0.00%    100.00% |           0      0.00%    100.00% |           0      0.00%    100.00% |           0      0.00%    100.00% |           0      0.00%    100.00% |           0      0.00%    100.00% |           0      0.00%    100.00% |           0      0.00%    100.00% |           0      0.00%    100.00% |           0      0.00%    100.00% |           0      0.00%    100.00% |           0      0.00%    100.00% |           0      0.00%    100.00% |           0      0.00%    100.00% |           0      0.00%    100.00% |           0      0.00%    100.00%
system.ruby.SimicsNetworkPortInterface_Controller.MessageSend::total      1764124                      
system.ruby.SimicsNetworkPortInterface_Controller.MessageRecv |      318949     18.08%     18.08% |      882062     50.00%     68.08% |       69851      3.96%     72.04% |       75711      4.29%     76.33% |       70308      3.99%     80.32% |       75614      4.29%     84.60% |       70661      4.01%     88.61% |       75091      4.26%     92.86% |       60589      3.43%     96.30% |       65288      3.70%    100.00% |           0      0.00%    100.00% |           0      0.00%    100.00% |           0      0.00%    100.00% |           0      0.00%    100.00% |           0      0.00%    100.00% |           0      0.00%    100.00% |           0      0.00%    100.00% |           0      0.00%    100.00% |           0      0.00%    100.00% |           0      0.00%    100.00% |           0      0.00%    100.00% |           0      0.00%    100.00% |           0      0.00%    100.00% |           0      0.00%    100.00% |           0      0.00%    100.00% |           0      0.00%    100.00% |           0      0.00%    100.00% |           0      0.00%    100.00% |           0      0.00%    100.00% |           0      0.00%    100.00% |           0      0.00%    100.00% |           0      0.00%    100.00%
system.ruby.SimicsNetworkPortInterface_Controller.MessageRecv::total      1764124                      
system.ruby.SimicsNetworkPortInterface_Controller.A.MessageSend |      318949     18.08%     18.08% |      882062     50.00%     68.08% |       69851      3.96%     72.04% |       75711      4.29%     76.33% |       70308      3.99%     80.32% |       75614      4.29%     84.60% |       70661      4.01%     88.61% |       75091      4.26%     92.86% |       60589      3.43%     96.30% |       65288      3.70%    100.00% |           0      0.00%    100.00% |           0      0.00%    100.00% |           0      0.00%    100.00% |           0      0.00%    100.00% |           0      0.00%    100.00% |           0      0.00%    100.00% |           0      0.00%    100.00% |           0      0.00%    100.00% |           0      0.00%    100.00% |           0      0.00%    100.00% |           0      0.00%    100.00% |           0      0.00%    100.00% |           0      0.00%    100.00% |           0      0.00%    100.00% |           0      0.00%    100.00% |           0      0.00%    100.00% |           0      0.00%    100.00% |           0      0.00%    100.00% |           0      0.00%    100.00% |           0      0.00%    100.00% |           0      0.00%    100.00% |           0      0.00%    100.00%
system.ruby.SimicsNetworkPortInterface_Controller.A.MessageSend::total      1764124                      
system.ruby.SimicsNetworkPortInterface_Controller.A.MessageRecv |      318949     18.08%     18.08% |      882062     50.00%     68.08% |       69851      3.96%     72.04% |       75711      4.29%     76.33% |       70308      3.99%     80.32% |       75614      4.29%     84.60% |       70661      4.01%     88.61% |       75091      4.26%     92.86% |       60589      3.43%     96.30% |       65288      3.70%    100.00% |           0      0.00%    100.00% |           0      0.00%    100.00% |           0      0.00%    100.00% |           0      0.00%    100.00% |           0      0.00%    100.00% |           0      0.00%    100.00% |           0      0.00%    100.00% |           0      0.00%    100.00% |           0      0.00%    100.00% |           0      0.00%    100.00% |           0      0.00%    100.00% |           0      0.00%    100.00% |           0      0.00%    100.00% |           0      0.00%    100.00% |           0      0.00%    100.00% |           0      0.00%    100.00% |           0      0.00%    100.00% |           0      0.00%    100.00% |           0      0.00%    100.00% |           0      0.00%    100.00% |           0      0.00%    100.00% |           0      0.00%    100.00%
system.ruby.SimicsNetworkPortInterface_Controller.A.MessageRecv::total      1764124                      
system.switch_cpus.kern.inst.arm                    0                       # number of arm instructions executed
system.switch_cpus.kern.inst.quiesce                0                       # number of quiesce instructions executed

---------- End Simulation Statistics   ----------
