
---------- Begin Simulation Statistics ----------
sim_seconds                                  0.056743                       # Number of seconds simulated
sim_ticks                                 56742507000                       # Number of ticks simulated
final_tick                               5232910585500                       # Number of ticks from beginning of simulation (restored from checkpoints and never reset)
sim_freq                                 1000000000000                       # Frequency of simulated ticks
host_inst_rate                                  14216                       # Simulator instruction rate (inst/s)
host_op_rate                                    25212                       # Simulator op (including micro ops) rate (op/s)
host_tick_rate                               35655822                       # Simulator tick rate (ticks/s)
host_mem_usage                                3556064                       # Number of bytes of host memory used
host_seconds                                  1591.40                       # Real time elapsed on the host
sim_insts                                    22623048                       # Number of instructions simulated
sim_ops                                      40121983                       # Number of ops (including micro ops) simulated
system.voltage_domain.voltage                       1                       # Voltage in Volts
system.clk_domain.clock                           500                       # Clock period in ticks
system.mem_ctrls0.bytes_read::ruby.dir_cntrl0     12636928                       # Number of bytes read from this memory
system.mem_ctrls0.bytes_read::total          12636928                       # Number of bytes read from this memory
system.mem_ctrls0.bytes_written::ruby.dir_cntrl0      8046720                       # Number of bytes written to this memory
system.mem_ctrls0.bytes_written::total        8046720                       # Number of bytes written to this memory
system.mem_ctrls0.num_reads::ruby.dir_cntrl0       197452                       # Number of read requests responded to by this memory
system.mem_ctrls0.num_reads::total             197452                       # Number of read requests responded to by this memory
system.mem_ctrls0.num_writes::ruby.dir_cntrl0       125730                       # Number of write requests responded to by this memory
system.mem_ctrls0.num_writes::total            125730                       # Number of write requests responded to by this memory
system.mem_ctrls0.bw_read::ruby.dir_cntrl0    222706550                       # Total read bandwidth from this memory (bytes/s)
system.mem_ctrls0.bw_read::total            222706550                       # Total read bandwidth from this memory (bytes/s)
system.mem_ctrls0.bw_write::ruby.dir_cntrl0    141811147                       # Write bandwidth from this memory (bytes/s)
system.mem_ctrls0.bw_write::total           141811147                       # Write bandwidth from this memory (bytes/s)
system.mem_ctrls0.bw_total::ruby.dir_cntrl0    364517697                       # Total bandwidth to/from this memory (bytes/s)
system.mem_ctrls0.bw_total::total           364517697                       # Total bandwidth to/from this memory (bytes/s)
system.mem_ctrls0.readReqs                     197453                       # Number of read requests accepted
system.mem_ctrls0.writeReqs                    125730                       # Number of write requests accepted
system.mem_ctrls0.readBursts                   197453                       # Number of DRAM read bursts, including those serviced by the write queue
system.mem_ctrls0.writeBursts                  125730                       # Number of DRAM write bursts, including those merged in the write queue
system.mem_ctrls0.bytesReadDRAM              12635648                       # Total number of bytes read from DRAM
system.mem_ctrls0.bytesReadWrQ                   1344                       # Total number of bytes read from write queue
system.mem_ctrls0.bytesWritten                8046464                       # Total number of bytes written to DRAM
system.mem_ctrls0.bytesReadSys               12636992                       # Total read bytes from the system interface side
system.mem_ctrls0.bytesWrittenSys             8046720                       # Total written bytes from the system interface side
system.mem_ctrls0.servicedByWrQ                    21                       # Number of DRAM read bursts serviced by the write queue
system.mem_ctrls0.mergedWrBursts                    0                       # Number of DRAM write bursts merged with an existing one
system.mem_ctrls0.neitherReadNorWriteReqs            0                       # Number of requests that are neither read nor write
system.mem_ctrls0.perBankRdBursts::0            12091                       # Per bank write bursts
system.mem_ctrls0.perBankRdBursts::1            12221                       # Per bank write bursts
system.mem_ctrls0.perBankRdBursts::2            12066                       # Per bank write bursts
system.mem_ctrls0.perBankRdBursts::3            12415                       # Per bank write bursts
system.mem_ctrls0.perBankRdBursts::4            12209                       # Per bank write bursts
system.mem_ctrls0.perBankRdBursts::5            12288                       # Per bank write bursts
system.mem_ctrls0.perBankRdBursts::6            12502                       # Per bank write bursts
system.mem_ctrls0.perBankRdBursts::7            12673                       # Per bank write bursts
system.mem_ctrls0.perBankRdBursts::8            12446                       # Per bank write bursts
system.mem_ctrls0.perBankRdBursts::9            12786                       # Per bank write bursts
system.mem_ctrls0.perBankRdBursts::10           12434                       # Per bank write bursts
system.mem_ctrls0.perBankRdBursts::11           12719                       # Per bank write bursts
system.mem_ctrls0.perBankRdBursts::12           12286                       # Per bank write bursts
system.mem_ctrls0.perBankRdBursts::13           12061                       # Per bank write bursts
system.mem_ctrls0.perBankRdBursts::14           12321                       # Per bank write bursts
system.mem_ctrls0.perBankRdBursts::15           11914                       # Per bank write bursts
system.mem_ctrls0.perBankWrBursts::0             7793                       # Per bank write bursts
system.mem_ctrls0.perBankWrBursts::1             7658                       # Per bank write bursts
system.mem_ctrls0.perBankWrBursts::2             7795                       # Per bank write bursts
system.mem_ctrls0.perBankWrBursts::3             7841                       # Per bank write bursts
system.mem_ctrls0.perBankWrBursts::4             7806                       # Per bank write bursts
system.mem_ctrls0.perBankWrBursts::5             7905                       # Per bank write bursts
system.mem_ctrls0.perBankWrBursts::6             8003                       # Per bank write bursts
system.mem_ctrls0.perBankWrBursts::7             8027                       # Per bank write bursts
system.mem_ctrls0.perBankWrBursts::8             7920                       # Per bank write bursts
system.mem_ctrls0.perBankWrBursts::9             8083                       # Per bank write bursts
system.mem_ctrls0.perBankWrBursts::10            7898                       # Per bank write bursts
system.mem_ctrls0.perBankWrBursts::11            7919                       # Per bank write bursts
system.mem_ctrls0.perBankWrBursts::12            7765                       # Per bank write bursts
system.mem_ctrls0.perBankWrBursts::13            7817                       # Per bank write bursts
system.mem_ctrls0.perBankWrBursts::14            7866                       # Per bank write bursts
system.mem_ctrls0.perBankWrBursts::15            7630                       # Per bank write bursts
system.mem_ctrls0.numRdRetry                    70680                       # Number of times read queue was full causing retry
system.mem_ctrls0.numWrRetry                     6958                       # Number of times write queue was full causing retry
system.mem_ctrls0.totGap                  56742254500                       # Total gap between requests
system.mem_ctrls0.readPktSize::0                    0                       # Read request sizes (log2)
system.mem_ctrls0.readPktSize::1                    0                       # Read request sizes (log2)
system.mem_ctrls0.readPktSize::2                    0                       # Read request sizes (log2)
system.mem_ctrls0.readPktSize::3                    0                       # Read request sizes (log2)
system.mem_ctrls0.readPktSize::4                    0                       # Read request sizes (log2)
system.mem_ctrls0.readPktSize::5                    0                       # Read request sizes (log2)
system.mem_ctrls0.readPktSize::6               197453                       # Read request sizes (log2)
system.mem_ctrls0.writePktSize::0                   0                       # Write request sizes (log2)
system.mem_ctrls0.writePktSize::1                   0                       # Write request sizes (log2)
system.mem_ctrls0.writePktSize::2                   0                       # Write request sizes (log2)
system.mem_ctrls0.writePktSize::3                   0                       # Write request sizes (log2)
system.mem_ctrls0.writePktSize::4                   0                       # Write request sizes (log2)
system.mem_ctrls0.writePktSize::5                   0                       # Write request sizes (log2)
system.mem_ctrls0.writePktSize::6              125730                       # Write request sizes (log2)
system.mem_ctrls0.rdQLenPdf::0                  68903                       # What read queue length does an incoming req see
system.mem_ctrls0.rdQLenPdf::1                   2894                       # What read queue length does an incoming req see
system.mem_ctrls0.rdQLenPdf::2                   1783                       # What read queue length does an incoming req see
system.mem_ctrls0.rdQLenPdf::3                   1223                       # What read queue length does an incoming req see
system.mem_ctrls0.rdQLenPdf::4                   1377                       # What read queue length does an incoming req see
system.mem_ctrls0.rdQLenPdf::5                   1492                       # What read queue length does an incoming req see
system.mem_ctrls0.rdQLenPdf::6                   1552                       # What read queue length does an incoming req see
system.mem_ctrls0.rdQLenPdf::7                   1615                       # What read queue length does an incoming req see
system.mem_ctrls0.rdQLenPdf::8                   1703                       # What read queue length does an incoming req see
system.mem_ctrls0.rdQLenPdf::9                   1752                       # What read queue length does an incoming req see
system.mem_ctrls0.rdQLenPdf::10                  1701                       # What read queue length does an incoming req see
system.mem_ctrls0.rdQLenPdf::11                  1703                       # What read queue length does an incoming req see
system.mem_ctrls0.rdQLenPdf::12                  1761                       # What read queue length does an incoming req see
system.mem_ctrls0.rdQLenPdf::13                  1749                       # What read queue length does an incoming req see
system.mem_ctrls0.rdQLenPdf::14                  1744                       # What read queue length does an incoming req see
system.mem_ctrls0.rdQLenPdf::15                  1691                       # What read queue length does an incoming req see
system.mem_ctrls0.rdQLenPdf::16                  1787                       # What read queue length does an incoming req see
system.mem_ctrls0.rdQLenPdf::17                  1824                       # What read queue length does an incoming req see
system.mem_ctrls0.rdQLenPdf::18                  1823                       # What read queue length does an incoming req see
system.mem_ctrls0.rdQLenPdf::19                  1782                       # What read queue length does an incoming req see
system.mem_ctrls0.rdQLenPdf::20                  1792                       # What read queue length does an incoming req see
system.mem_ctrls0.rdQLenPdf::21                  1748                       # What read queue length does an incoming req see
system.mem_ctrls0.rdQLenPdf::22                  1774                       # What read queue length does an incoming req see
system.mem_ctrls0.rdQLenPdf::23                  1823                       # What read queue length does an incoming req see
system.mem_ctrls0.rdQLenPdf::24                  1890                       # What read queue length does an incoming req see
system.mem_ctrls0.rdQLenPdf::25                  1914                       # What read queue length does an incoming req see
system.mem_ctrls0.rdQLenPdf::26                  1981                       # What read queue length does an incoming req see
system.mem_ctrls0.rdQLenPdf::27                  1927                       # What read queue length does an incoming req see
system.mem_ctrls0.rdQLenPdf::28                  2125                       # What read queue length does an incoming req see
system.mem_ctrls0.rdQLenPdf::29                  2236                       # What read queue length does an incoming req see
system.mem_ctrls0.rdQLenPdf::30                  2457                       # What read queue length does an incoming req see
system.mem_ctrls0.rdQLenPdf::31                 73906                       # What read queue length does an incoming req see
system.mem_ctrls0.wrQLenPdf::0                  16831                       # What write queue length does an incoming req see
system.mem_ctrls0.wrQLenPdf::1                  18347                       # What write queue length does an incoming req see
system.mem_ctrls0.wrQLenPdf::2                  19190                       # What write queue length does an incoming req see
system.mem_ctrls0.wrQLenPdf::3                  19527                       # What write queue length does an incoming req see
system.mem_ctrls0.wrQLenPdf::4                  19913                       # What write queue length does an incoming req see
system.mem_ctrls0.wrQLenPdf::5                   8074                       # What write queue length does an incoming req see
system.mem_ctrls0.wrQLenPdf::6                   9420                       # What write queue length does an incoming req see
system.mem_ctrls0.wrQLenPdf::7                  14428                       # What write queue length does an incoming req see
system.mem_ctrls0.bytesPerActivate::samples        82733                       # Bytes accessed per row activation
system.mem_ctrls0.bytesPerActivate::mean   249.976188                       # Bytes accessed per row activation
system.mem_ctrls0.bytesPerActivate::gmean   178.227852                       # Bytes accessed per row activation
system.mem_ctrls0.bytesPerActivate::stdev   219.969071                       # Bytes accessed per row activation
system.mem_ctrls0.bytesPerActivate::0-127        24929     30.13%     30.13% # Bytes accessed per row activation
system.mem_ctrls0.bytesPerActivate::128-255        21020     25.41%     55.54% # Bytes accessed per row activation
system.mem_ctrls0.bytesPerActivate::256-383        21775     26.32%     81.86% # Bytes accessed per row activation
system.mem_ctrls0.bytesPerActivate::384-511         5208      6.29%     88.15% # Bytes accessed per row activation
system.mem_ctrls0.bytesPerActivate::512-639         3617      4.37%     92.53% # Bytes accessed per row activation
system.mem_ctrls0.bytesPerActivate::640-767         1942      2.35%     94.87% # Bytes accessed per row activation
system.mem_ctrls0.bytesPerActivate::768-895         1104      1.33%     96.21% # Bytes accessed per row activation
system.mem_ctrls0.bytesPerActivate::896-1023          838      1.01%     97.22% # Bytes accessed per row activation
system.mem_ctrls0.bytesPerActivate::1024-1151         2300      2.78%    100.00% # Bytes accessed per row activation
system.mem_ctrls0.bytesPerActivate::total        82733                       # Bytes accessed per row activation
system.mem_ctrls0.rdPerTurnAround::samples        17565                       # Reads before turning the bus around for writes
system.mem_ctrls0.rdPerTurnAround::mean     11.239283                       # Reads before turning the bus around for writes
system.mem_ctrls0.rdPerTurnAround::stdev    32.155551                       # Reads before turning the bus around for writes
system.mem_ctrls0.rdPerTurnAround::0-127        17557     99.95%     99.95% # Reads before turning the bus around for writes
system.mem_ctrls0.rdPerTurnAround::128-255            7      0.04%     99.99% # Reads before turning the bus around for writes
system.mem_ctrls0.rdPerTurnAround::3968-4095            1      0.01%    100.00% # Reads before turning the bus around for writes
system.mem_ctrls0.rdPerTurnAround::total        17565                       # Reads before turning the bus around for writes
system.mem_ctrls0.wrPerTurnAround::samples        17565                       # Writes before turning the bus around for reads
system.mem_ctrls0.wrPerTurnAround::mean      7.157757                       # Writes before turning the bus around for reads
system.mem_ctrls0.wrPerTurnAround::gmean     6.493176                       # Writes before turning the bus around for reads
system.mem_ctrls0.wrPerTurnAround::stdev     3.605266                       # Writes before turning the bus around for reads
system.mem_ctrls0.wrPerTurnAround::4-7          12595     71.71%     71.71% # Writes before turning the bus around for reads
system.mem_ctrls0.wrPerTurnAround::8-11          2080     11.84%     83.55% # Writes before turning the bus around for reads
system.mem_ctrls0.wrPerTurnAround::12-15         1742      9.92%     93.46% # Writes before turning the bus around for reads
system.mem_ctrls0.wrPerTurnAround::16-19         1148      6.54%    100.00% # Writes before turning the bus around for reads
system.mem_ctrls0.wrPerTurnAround::total        17565                       # Writes before turning the bus around for reads
system.mem_ctrls0.totQLat                 32554813560                       # Total ticks spent queuing
system.mem_ctrls0.totMemAccLat            36256663560                       # Total ticks spent from burst creation until serviced by the DRAM
system.mem_ctrls0.totBusLat                 987160000                       # Total ticks spent in databus transfers
system.mem_ctrls0.avgQLat                   164891.27                       # Average queueing delay per DRAM burst
system.mem_ctrls0.avgBusLat                   5000.00                       # Average bus latency per DRAM burst
system.mem_ctrls0.avgMemAccLat              183641.27                       # Average memory access latency per DRAM burst
system.mem_ctrls0.avgRdBW                      222.68                       # Average DRAM read bandwidth in MiByte/s
system.mem_ctrls0.avgWrBW                      141.81                       # Average achieved write bandwidth in MiByte/s
system.mem_ctrls0.avgRdBWSys                   222.71                       # Average system read bandwidth in MiByte/s
system.mem_ctrls0.avgWrBWSys                   141.81                       # Average system write bandwidth in MiByte/s
system.mem_ctrls0.peakBW                     12800.00                       # Theoretical peak bandwidth in MiByte/s
system.mem_ctrls0.busUtil                        2.85                       # Data bus utilization in percentage
system.mem_ctrls0.busUtilRead                    1.74                       # Data bus utilization in percentage for reads
system.mem_ctrls0.busUtilWrite                   1.11                       # Data bus utilization in percentage for writes
system.mem_ctrls0.avgRdQLen                      1.60                       # Average read queue length when enqueuing
system.mem_ctrls0.avgWrQLen                      2.93                       # Average write queue length when enqueuing
system.mem_ctrls0.readRowHits                  155368                       # Number of row buffer hits during reads
system.mem_ctrls0.writeRowHits                  85046                       # Number of row buffer hits during writes
system.mem_ctrls0.readRowHitRate                78.69                       # Row buffer hit rate for reads
system.mem_ctrls0.writeRowHitRate               67.64                       # Row buffer hit rate for writes
system.mem_ctrls0.avgGap                    175573.14                       # Average gap between requests
system.mem_ctrls0.pageHitRate                   74.39                       # Row buffer hit rate, read and write combined
system.mem_ctrls0.memoryStateTime::IDLE   11627671500                       # Time in different power states
system.mem_ctrls0.memoryStateTime::REF     1894620000                       # Time in different power states
system.mem_ctrls0.memoryStateTime::PRE_PDN            0                       # Time in different power states
system.mem_ctrls0.memoryStateTime::ACT    43216515000                       # Time in different power states
system.mem_ctrls0.memoryStateTime::ACT_PDN            0                       # Time in different power states
system.mem_ctrls0.actEnergy::0              315441000                       # Energy for activate commands per rank (pJ)
system.mem_ctrls0.actEnergy::1              309967560                       # Energy for activate commands per rank (pJ)
system.mem_ctrls0.preEnergy::0              172115625                       # Energy for precharge commands per rank (pJ)
system.mem_ctrls0.preEnergy::1              169129125                       # Energy for precharge commands per rank (pJ)
system.mem_ctrls0.readEnergy::0             767964600                       # Energy for read commands per rank (pJ)
system.mem_ctrls0.readEnergy::1             771841200                       # Energy for read commands per rank (pJ)
system.mem_ctrls0.writeEnergy::0            407093040                       # Energy for write commands per rank (pJ)
system.mem_ctrls0.writeEnergy::1            407579040                       # Energy for write commands per rank (pJ)
system.mem_ctrls0.refreshEnergy::0         3705876720                       # Energy for refresh commands per rank (pJ)
system.mem_ctrls0.refreshEnergy::1         3705876720                       # Energy for refresh commands per rank (pJ)
system.mem_ctrls0.actBackEnergy::0        22314179880                       # Energy for active background per rank (pJ)
system.mem_ctrls0.actBackEnergy::1        21795120495                       # Energy for active background per rank (pJ)
system.mem_ctrls0.preBackEnergy::0        14469356250                       # Energy for precharge background per rank (pJ)
system.mem_ctrls0.preBackEnergy::1        14924671500                       # Energy for precharge background per rank (pJ)
system.mem_ctrls0.totalEnergy::0          42152027115                       # Total energy per rank (pJ)
system.mem_ctrls0.totalEnergy::1          42084185640                       # Total energy per rank (pJ)
system.mem_ctrls0.averagePower::0          742.915401                       # Core power per rank (mW)
system.mem_ctrls0.averagePower::1          741.719717                       # Core power per rank (mW)
system.mem_ctrls1.bytes_read::ruby.dir_cntrl1     12410304                       # Number of bytes read from this memory
system.mem_ctrls1.bytes_read::total          12410304                       # Number of bytes read from this memory
system.mem_ctrls1.bytes_written::ruby.dir_cntrl1      7829056                       # Number of bytes written to this memory
system.mem_ctrls1.bytes_written::total        7829056                       # Number of bytes written to this memory
system.mem_ctrls1.num_reads::ruby.dir_cntrl1       193911                       # Number of read requests responded to by this memory
system.mem_ctrls1.num_reads::total             193911                       # Number of read requests responded to by this memory
system.mem_ctrls1.num_writes::ruby.dir_cntrl1       122329                       # Number of write requests responded to by this memory
system.mem_ctrls1.num_writes::total            122329                       # Number of write requests responded to by this memory
system.mem_ctrls1.bw_read::ruby.dir_cntrl1    218712649                       # Total read bandwidth from this memory (bytes/s)
system.mem_ctrls1.bw_read::total            218712649                       # Total read bandwidth from this memory (bytes/s)
system.mem_ctrls1.bw_write::ruby.dir_cntrl1    137975152                       # Write bandwidth from this memory (bytes/s)
system.mem_ctrls1.bw_write::total           137975152                       # Write bandwidth from this memory (bytes/s)
system.mem_ctrls1.bw_total::ruby.dir_cntrl1    356687800                       # Total bandwidth to/from this memory (bytes/s)
system.mem_ctrls1.bw_total::total           356687800                       # Total bandwidth to/from this memory (bytes/s)
system.mem_ctrls1.readReqs                     193911                       # Number of read requests accepted
system.mem_ctrls1.writeReqs                    122329                       # Number of write requests accepted
system.mem_ctrls1.readBursts                   193911                       # Number of DRAM read bursts, including those serviced by the write queue
system.mem_ctrls1.writeBursts                  122329                       # Number of DRAM write bursts, including those merged in the write queue
system.mem_ctrls1.bytesReadDRAM              12408512                       # Total number of bytes read from DRAM
system.mem_ctrls1.bytesReadWrQ                   1792                       # Total number of bytes read from write queue
system.mem_ctrls1.bytesWritten                7828928                       # Total number of bytes written to DRAM
system.mem_ctrls1.bytesReadSys               12410304                       # Total read bytes from the system interface side
system.mem_ctrls1.bytesWrittenSys             7829056                       # Total written bytes from the system interface side
system.mem_ctrls1.servicedByWrQ                    28                       # Number of DRAM read bursts serviced by the write queue
system.mem_ctrls1.mergedWrBursts                    0                       # Number of DRAM write bursts merged with an existing one
system.mem_ctrls1.neitherReadNorWriteReqs            0                       # Number of requests that are neither read nor write
system.mem_ctrls1.perBankRdBursts::0            11880                       # Per bank write bursts
system.mem_ctrls1.perBankRdBursts::1            12002                       # Per bank write bursts
system.mem_ctrls1.perBankRdBursts::2            11838                       # Per bank write bursts
system.mem_ctrls1.perBankRdBursts::3            12177                       # Per bank write bursts
system.mem_ctrls1.perBankRdBursts::4            12007                       # Per bank write bursts
system.mem_ctrls1.perBankRdBursts::5            12103                       # Per bank write bursts
system.mem_ctrls1.perBankRdBursts::6            12319                       # Per bank write bursts
system.mem_ctrls1.perBankRdBursts::7            12457                       # Per bank write bursts
system.mem_ctrls1.perBankRdBursts::8            12213                       # Per bank write bursts
system.mem_ctrls1.perBankRdBursts::9            12558                       # Per bank write bursts
system.mem_ctrls1.perBankRdBursts::10           12200                       # Per bank write bursts
system.mem_ctrls1.perBankRdBursts::11           12526                       # Per bank write bursts
system.mem_ctrls1.perBankRdBursts::12           12053                       # Per bank write bursts
system.mem_ctrls1.perBankRdBursts::13           11832                       # Per bank write bursts
system.mem_ctrls1.perBankRdBursts::14           12005                       # Per bank write bursts
system.mem_ctrls1.perBankRdBursts::15           11713                       # Per bank write bursts
system.mem_ctrls1.perBankWrBursts::0             7590                       # Per bank write bursts
system.mem_ctrls1.perBankWrBursts::1             7467                       # Per bank write bursts
system.mem_ctrls1.perBankWrBursts::2             7592                       # Per bank write bursts
system.mem_ctrls1.perBankWrBursts::3             7630                       # Per bank write bursts
system.mem_ctrls1.perBankWrBursts::4             7609                       # Per bank write bursts
system.mem_ctrls1.perBankWrBursts::5             7707                       # Per bank write bursts
system.mem_ctrls1.perBankWrBursts::6             7778                       # Per bank write bursts
system.mem_ctrls1.perBankWrBursts::7             7806                       # Per bank write bursts
system.mem_ctrls1.perBankWrBursts::8             7709                       # Per bank write bursts
system.mem_ctrls1.perBankWrBursts::9             7868                       # Per bank write bursts
system.mem_ctrls1.perBankWrBursts::10            7679                       # Per bank write bursts
system.mem_ctrls1.perBankWrBursts::11            7708                       # Per bank write bursts
system.mem_ctrls1.perBankWrBursts::12            7554                       # Per bank write bursts
system.mem_ctrls1.perBankWrBursts::13            7603                       # Per bank write bursts
system.mem_ctrls1.perBankWrBursts::14            7598                       # Per bank write bursts
system.mem_ctrls1.perBankWrBursts::15            7429                       # Per bank write bursts
system.mem_ctrls1.numRdRetry                    62094                       # Number of times read queue was full causing retry
system.mem_ctrls1.numWrRetry                     6322                       # Number of times write queue was full causing retry
system.mem_ctrls1.totGap                  56741717500                       # Total gap between requests
system.mem_ctrls1.readPktSize::0                    0                       # Read request sizes (log2)
system.mem_ctrls1.readPktSize::1                    0                       # Read request sizes (log2)
system.mem_ctrls1.readPktSize::2                    0                       # Read request sizes (log2)
system.mem_ctrls1.readPktSize::3                    0                       # Read request sizes (log2)
system.mem_ctrls1.readPktSize::4                    0                       # Read request sizes (log2)
system.mem_ctrls1.readPktSize::5                    0                       # Read request sizes (log2)
system.mem_ctrls1.readPktSize::6               193911                       # Read request sizes (log2)
system.mem_ctrls1.writePktSize::0                   0                       # Write request sizes (log2)
system.mem_ctrls1.writePktSize::1                   0                       # Write request sizes (log2)
system.mem_ctrls1.writePktSize::2                   0                       # Write request sizes (log2)
system.mem_ctrls1.writePktSize::3                   0                       # Write request sizes (log2)
system.mem_ctrls1.writePktSize::4                   0                       # Write request sizes (log2)
system.mem_ctrls1.writePktSize::5                   0                       # Write request sizes (log2)
system.mem_ctrls1.writePktSize::6              122329                       # Write request sizes (log2)
system.mem_ctrls1.rdQLenPdf::0                  67670                       # What read queue length does an incoming req see
system.mem_ctrls1.rdQLenPdf::1                   1583                       # What read queue length does an incoming req see
system.mem_ctrls1.rdQLenPdf::2                   1303                       # What read queue length does an incoming req see
system.mem_ctrls1.rdQLenPdf::3                   1413                       # What read queue length does an incoming req see
system.mem_ctrls1.rdQLenPdf::4                   1512                       # What read queue length does an incoming req see
system.mem_ctrls1.rdQLenPdf::5                   1627                       # What read queue length does an incoming req see
system.mem_ctrls1.rdQLenPdf::6                   1768                       # What read queue length does an incoming req see
system.mem_ctrls1.rdQLenPdf::7                   1732                       # What read queue length does an incoming req see
system.mem_ctrls1.rdQLenPdf::8                   1892                       # What read queue length does an incoming req see
system.mem_ctrls1.rdQLenPdf::9                   1960                       # What read queue length does an incoming req see
system.mem_ctrls1.rdQLenPdf::10                  1985                       # What read queue length does an incoming req see
system.mem_ctrls1.rdQLenPdf::11                  1946                       # What read queue length does an incoming req see
system.mem_ctrls1.rdQLenPdf::12                  2050                       # What read queue length does an incoming req see
system.mem_ctrls1.rdQLenPdf::13                  1934                       # What read queue length does an incoming req see
system.mem_ctrls1.rdQLenPdf::14                  1978                       # What read queue length does an incoming req see
system.mem_ctrls1.rdQLenPdf::15                  2101                       # What read queue length does an incoming req see
system.mem_ctrls1.rdQLenPdf::16                  2009                       # What read queue length does an incoming req see
system.mem_ctrls1.rdQLenPdf::17                  2042                       # What read queue length does an incoming req see
system.mem_ctrls1.rdQLenPdf::18                  2075                       # What read queue length does an incoming req see
system.mem_ctrls1.rdQLenPdf::19                  2134                       # What read queue length does an incoming req see
system.mem_ctrls1.rdQLenPdf::20                  2115                       # What read queue length does an incoming req see
system.mem_ctrls1.rdQLenPdf::21                  2084                       # What read queue length does an incoming req see
system.mem_ctrls1.rdQLenPdf::22                  2158                       # What read queue length does an incoming req see
system.mem_ctrls1.rdQLenPdf::23                  2176                       # What read queue length does an incoming req see
system.mem_ctrls1.rdQLenPdf::24                  2173                       # What read queue length does an incoming req see
system.mem_ctrls1.rdQLenPdf::25                  2194                       # What read queue length does an incoming req see
system.mem_ctrls1.rdQLenPdf::26                  2316                       # What read queue length does an incoming req see
system.mem_ctrls1.rdQLenPdf::27                  2325                       # What read queue length does an incoming req see
system.mem_ctrls1.rdQLenPdf::28                  2500                       # What read queue length does an incoming req see
system.mem_ctrls1.rdQLenPdf::29                  2574                       # What read queue length does an incoming req see
system.mem_ctrls1.rdQLenPdf::30                  2843                       # What read queue length does an incoming req see
system.mem_ctrls1.rdQLenPdf::31                 65711                       # What read queue length does an incoming req see
system.mem_ctrls1.wrQLenPdf::0                  16363                       # What write queue length does an incoming req see
system.mem_ctrls1.wrQLenPdf::1                  17971                       # What write queue length does an incoming req see
system.mem_ctrls1.wrQLenPdf::2                  18729                       # What write queue length does an incoming req see
system.mem_ctrls1.wrQLenPdf::3                  19128                       # What write queue length does an incoming req see
system.mem_ctrls1.wrQLenPdf::4                  19543                       # What write queue length does an incoming req see
system.mem_ctrls1.wrQLenPdf::5                   8170                       # What write queue length does an incoming req see
system.mem_ctrls1.wrQLenPdf::6                   9309                       # What write queue length does an incoming req see
system.mem_ctrls1.wrQLenPdf::7                  13116                       # What write queue length does an incoming req see
system.mem_ctrls1.bytesPerActivate::samples        75607                       # Bytes accessed per row activation
system.mem_ctrls1.bytesPerActivate::mean   267.655217                       # Bytes accessed per row activation
system.mem_ctrls1.bytesPerActivate::gmean   195.010812                       # Bytes accessed per row activation
system.mem_ctrls1.bytesPerActivate::stdev   223.825069                       # Bytes accessed per row activation
system.mem_ctrls1.bytesPerActivate::0-127        18745     24.79%     24.79% # Bytes accessed per row activation
system.mem_ctrls1.bytesPerActivate::128-255        19814     26.21%     51.00% # Bytes accessed per row activation
system.mem_ctrls1.bytesPerActivate::256-383        21895     28.96%     79.96% # Bytes accessed per row activation
system.mem_ctrls1.bytesPerActivate::384-511         5284      6.99%     86.95% # Bytes accessed per row activation
system.mem_ctrls1.bytesPerActivate::512-639         3692      4.88%     91.83% # Bytes accessed per row activation
system.mem_ctrls1.bytesPerActivate::640-767         1841      2.43%     94.27% # Bytes accessed per row activation
system.mem_ctrls1.bytesPerActivate::768-895         1168      1.54%     95.81% # Bytes accessed per row activation
system.mem_ctrls1.bytesPerActivate::896-1023          808      1.07%     96.88% # Bytes accessed per row activation
system.mem_ctrls1.bytesPerActivate::1024-1151         2360      3.12%    100.00% # Bytes accessed per row activation
system.mem_ctrls1.bytesPerActivate::total        75607                       # Bytes accessed per row activation
system.mem_ctrls1.rdPerTurnAround::samples        17078                       # Reads before turning the bus around for writes
system.mem_ctrls1.rdPerTurnAround::mean     11.352208                       # Reads before turning the bus around for writes
system.mem_ctrls1.rdPerTurnAround::stdev    26.532849                       # Reads before turning the bus around for writes
system.mem_ctrls1.rdPerTurnAround::0-127        17072     99.96%     99.96% # Reads before turning the bus around for writes
system.mem_ctrls1.rdPerTurnAround::128-255            4      0.02%     99.99% # Reads before turning the bus around for writes
system.mem_ctrls1.rdPerTurnAround::1152-1279            1      0.01%     99.99% # Reads before turning the bus around for writes
system.mem_ctrls1.rdPerTurnAround::2816-2943            1      0.01%    100.00% # Reads before turning the bus around for writes
system.mem_ctrls1.rdPerTurnAround::total        17078                       # Reads before turning the bus around for writes
system.mem_ctrls1.wrPerTurnAround::samples        17078                       # Writes before turning the bus around for reads
system.mem_ctrls1.wrPerTurnAround::mean      7.162841                       # Writes before turning the bus around for reads
system.mem_ctrls1.wrPerTurnAround::gmean     6.500685                       # Writes before turning the bus around for reads
system.mem_ctrls1.wrPerTurnAround::stdev     3.590473                       # Writes before turning the bus around for reads
system.mem_ctrls1.wrPerTurnAround::4-7          12092     70.80%     70.80% # Writes before turning the bus around for reads
system.mem_ctrls1.wrPerTurnAround::8-11          2207     12.92%     83.73% # Writes before turning the bus around for reads
system.mem_ctrls1.wrPerTurnAround::12-15         1705      9.98%     93.71% # Writes before turning the bus around for reads
system.mem_ctrls1.wrPerTurnAround::16-19         1074      6.29%    100.00% # Writes before turning the bus around for reads
system.mem_ctrls1.wrPerTurnAround::total        17078                       # Writes before turning the bus around for reads
system.mem_ctrls1.totQLat                 31029364130                       # Total ticks spent queuing
system.mem_ctrls1.totMemAccLat            34664670380                       # Total ticks spent from burst creation until serviced by the DRAM
system.mem_ctrls1.totBusLat                 969415000                       # Total ticks spent in databus transfers
system.mem_ctrls1.avgQLat                   160041.70                       # Average queueing delay per DRAM burst
system.mem_ctrls1.avgBusLat                   5000.00                       # Average bus latency per DRAM burst
system.mem_ctrls1.avgMemAccLat              178791.70                       # Average memory access latency per DRAM burst
system.mem_ctrls1.avgRdBW                      218.68                       # Average DRAM read bandwidth in MiByte/s
system.mem_ctrls1.avgWrBW                      137.97                       # Average achieved write bandwidth in MiByte/s
system.mem_ctrls1.avgRdBWSys                   218.71                       # Average system read bandwidth in MiByte/s
system.mem_ctrls1.avgWrBWSys                   137.98                       # Average system write bandwidth in MiByte/s
system.mem_ctrls1.peakBW                     12800.00                       # Theoretical peak bandwidth in MiByte/s
system.mem_ctrls1.busUtil                        2.79                       # Data bus utilization in percentage
system.mem_ctrls1.busUtilRead                    1.71                       # Data bus utilization in percentage for reads
system.mem_ctrls1.busUtilWrite                   1.08                       # Data bus utilization in percentage for writes
system.mem_ctrls1.avgRdQLen                      1.58                       # Average read queue length when enqueuing
system.mem_ctrls1.avgWrQLen                      2.97                       # Average write queue length when enqueuing
system.mem_ctrls1.readRowHits                  154173                       # Number of row buffer hits during reads
system.mem_ctrls1.writeRowHits                  86422                       # Number of row buffer hits during writes
system.mem_ctrls1.readRowHitRate                79.52                       # Row buffer hit rate for reads
system.mem_ctrls1.writeRowHitRate               70.65                       # Row buffer hit rate for writes
system.mem_ctrls1.avgGap                    179426.12                       # Average gap between requests
system.mem_ctrls1.pageHitRate                   76.09                       # Row buffer hit rate, read and write combined
system.mem_ctrls1.memoryStateTime::IDLE   11893129500                       # Time in different power states
system.mem_ctrls1.memoryStateTime::REF     1894620000                       # Time in different power states
system.mem_ctrls1.memoryStateTime::PRE_PDN            0                       # Time in different power states
system.mem_ctrls1.memoryStateTime::ACT    42951033000                       # Time in different power states
system.mem_ctrls1.memoryStateTime::ACT_PDN            0                       # Time in different power states
system.mem_ctrls1.actEnergy::0              289487520                       # Energy for activate commands per rank (pJ)
system.mem_ctrls1.actEnergy::1              282078720                       # Energy for activate commands per rank (pJ)
system.mem_ctrls1.preEnergy::0              157954500                       # Energy for precharge commands per rank (pJ)
system.mem_ctrls1.preEnergy::1              153912000                       # Energy for precharge commands per rank (pJ)
system.mem_ctrls1.readEnergy::0             754868400                       # Energy for read commands per rank (pJ)
system.mem_ctrls1.readEnergy::1             757286400                       # Energy for read commands per rank (pJ)
system.mem_ctrls1.writeEnergy::0            396414000                       # Energy for write commands per rank (pJ)
system.mem_ctrls1.writeEnergy::1            396232560                       # Energy for write commands per rank (pJ)
system.mem_ctrls1.refreshEnergy::0         3705876720                       # Energy for refresh commands per rank (pJ)
system.mem_ctrls1.refreshEnergy::1         3705876720                       # Energy for refresh commands per rank (pJ)
system.mem_ctrls1.actBackEnergy::0        22092156900                       # Energy for active background per rank (pJ)
system.mem_ctrls1.actBackEnergy::1        21535596360                       # Energy for active background per rank (pJ)
system.mem_ctrls1.preBackEnergy::0        14664113250                       # Energy for precharge background per rank (pJ)
system.mem_ctrls1.preBackEnergy::1        15152324250                       # Energy for precharge background per rank (pJ)
system.mem_ctrls1.totalEnergy::0          42060871290                       # Total energy per rank (pJ)
system.mem_ctrls1.totalEnergy::1          41983307010                       # Total energy per rank (pJ)
system.mem_ctrls1.averagePower::0          741.308810                       # Core power per rank (mW)
system.mem_ctrls1.averagePower::1          739.941765                       # Core power per rank (mW)
system.mem_ctrls2.bytes_read::ruby.dir_cntrl2     12410304                       # Number of bytes read from this memory
system.mem_ctrls2.bytes_read::total          12410304                       # Number of bytes read from this memory
system.mem_ctrls2.bytes_written::ruby.dir_cntrl2      7829504                       # Number of bytes written to this memory
system.mem_ctrls2.bytes_written::total        7829504                       # Number of bytes written to this memory
system.mem_ctrls2.num_reads::ruby.dir_cntrl2       193911                       # Number of read requests responded to by this memory
system.mem_ctrls2.num_reads::total             193911                       # Number of read requests responded to by this memory
system.mem_ctrls2.num_writes::ruby.dir_cntrl2       122336                       # Number of write requests responded to by this memory
system.mem_ctrls2.num_writes::total            122336                       # Number of write requests responded to by this memory
system.mem_ctrls2.bw_read::ruby.dir_cntrl2    218712649                       # Total read bandwidth from this memory (bytes/s)
system.mem_ctrls2.bw_read::total            218712649                       # Total read bandwidth from this memory (bytes/s)
system.mem_ctrls2.bw_write::ruby.dir_cntrl2    137983047                       # Write bandwidth from this memory (bytes/s)
system.mem_ctrls2.bw_write::total           137983047                       # Write bandwidth from this memory (bytes/s)
system.mem_ctrls2.bw_total::ruby.dir_cntrl2    356695696                       # Total bandwidth to/from this memory (bytes/s)
system.mem_ctrls2.bw_total::total           356695696                       # Total bandwidth to/from this memory (bytes/s)
system.mem_ctrls2.readReqs                     193911                       # Number of read requests accepted
system.mem_ctrls2.writeReqs                    122336                       # Number of write requests accepted
system.mem_ctrls2.readBursts                   193911                       # Number of DRAM read bursts, including those serviced by the write queue
system.mem_ctrls2.writeBursts                  122336                       # Number of DRAM write bursts, including those merged in the write queue
system.mem_ctrls2.bytesReadDRAM              12409088                       # Total number of bytes read from DRAM
system.mem_ctrls2.bytesReadWrQ                   1216                       # Total number of bytes read from write queue
system.mem_ctrls2.bytesWritten                7829248                       # Total number of bytes written to DRAM
system.mem_ctrls2.bytesReadSys               12410304                       # Total read bytes from the system interface side
system.mem_ctrls2.bytesWrittenSys             7829504                       # Total written bytes from the system interface side
system.mem_ctrls2.servicedByWrQ                    19                       # Number of DRAM read bursts serviced by the write queue
system.mem_ctrls2.mergedWrBursts                    0                       # Number of DRAM write bursts merged with an existing one
system.mem_ctrls2.neitherReadNorWriteReqs            0                       # Number of requests that are neither read nor write
system.mem_ctrls2.perBankRdBursts::0            11876                       # Per bank write bursts
system.mem_ctrls2.perBankRdBursts::1            12030                       # Per bank write bursts
system.mem_ctrls2.perBankRdBursts::2            11862                       # Per bank write bursts
system.mem_ctrls2.perBankRdBursts::3            12220                       # Per bank write bursts
system.mem_ctrls2.perBankRdBursts::4            12011                       # Per bank write bursts
system.mem_ctrls2.perBankRdBursts::5            12084                       # Per bank write bursts
system.mem_ctrls2.perBankRdBursts::6            12287                       # Per bank write bursts
system.mem_ctrls2.perBankRdBursts::7            12455                       # Per bank write bursts
system.mem_ctrls2.perBankRdBursts::8            12202                       # Per bank write bursts
system.mem_ctrls2.perBankRdBursts::9            12540                       # Per bank write bursts
system.mem_ctrls2.perBankRdBursts::10           12209                       # Per bank write bursts
system.mem_ctrls2.perBankRdBursts::11           12567                       # Per bank write bursts
system.mem_ctrls2.perBankRdBursts::12           12052                       # Per bank write bursts
system.mem_ctrls2.perBankRdBursts::13           11795                       # Per bank write bursts
system.mem_ctrls2.perBankRdBursts::14           11989                       # Per bank write bursts
system.mem_ctrls2.perBankRdBursts::15           11713                       # Per bank write bursts
system.mem_ctrls2.perBankWrBursts::0             7583                       # Per bank write bursts
system.mem_ctrls2.perBankWrBursts::1             7465                       # Per bank write bursts
system.mem_ctrls2.perBankWrBursts::2             7594                       # Per bank write bursts
system.mem_ctrls2.perBankWrBursts::3             7640                       # Per bank write bursts
system.mem_ctrls2.perBankWrBursts::4             7606                       # Per bank write bursts
system.mem_ctrls2.perBankWrBursts::5             7691                       # Per bank write bursts
system.mem_ctrls2.perBankWrBursts::6             7772                       # Per bank write bursts
system.mem_ctrls2.perBankWrBursts::7             7815                       # Per bank write bursts
system.mem_ctrls2.perBankWrBursts::8             7712                       # Per bank write bursts
system.mem_ctrls2.perBankWrBursts::9             7869                       # Per bank write bursts
system.mem_ctrls2.perBankWrBursts::10            7679                       # Per bank write bursts
system.mem_ctrls2.perBankWrBursts::11            7719                       # Per bank write bursts
system.mem_ctrls2.perBankWrBursts::12            7562                       # Per bank write bursts
system.mem_ctrls2.perBankWrBursts::13            7593                       # Per bank write bursts
system.mem_ctrls2.perBankWrBursts::14            7601                       # Per bank write bursts
system.mem_ctrls2.perBankWrBursts::15            7431                       # Per bank write bursts
system.mem_ctrls2.numRdRetry                    62635                       # Number of times read queue was full causing retry
system.mem_ctrls2.numWrRetry                     6533                       # Number of times write queue was full causing retry
system.mem_ctrls2.totGap                  56742434500                       # Total gap between requests
system.mem_ctrls2.readPktSize::0                    0                       # Read request sizes (log2)
system.mem_ctrls2.readPktSize::1                    0                       # Read request sizes (log2)
system.mem_ctrls2.readPktSize::2                    0                       # Read request sizes (log2)
system.mem_ctrls2.readPktSize::3                    0                       # Read request sizes (log2)
system.mem_ctrls2.readPktSize::4                    0                       # Read request sizes (log2)
system.mem_ctrls2.readPktSize::5                    0                       # Read request sizes (log2)
system.mem_ctrls2.readPktSize::6               193911                       # Read request sizes (log2)
system.mem_ctrls2.writePktSize::0                   0                       # Write request sizes (log2)
system.mem_ctrls2.writePktSize::1                   0                       # Write request sizes (log2)
system.mem_ctrls2.writePktSize::2                   0                       # Write request sizes (log2)
system.mem_ctrls2.writePktSize::3                   0                       # Write request sizes (log2)
system.mem_ctrls2.writePktSize::4                   0                       # Write request sizes (log2)
system.mem_ctrls2.writePktSize::5                   0                       # Write request sizes (log2)
system.mem_ctrls2.writePktSize::6              122336                       # Write request sizes (log2)
system.mem_ctrls2.rdQLenPdf::0                  67801                       # What read queue length does an incoming req see
system.mem_ctrls2.rdQLenPdf::1                   1483                       # What read queue length does an incoming req see
system.mem_ctrls2.rdQLenPdf::2                   1359                       # What read queue length does an incoming req see
system.mem_ctrls2.rdQLenPdf::3                   1412                       # What read queue length does an incoming req see
system.mem_ctrls2.rdQLenPdf::4                   1493                       # What read queue length does an incoming req see
system.mem_ctrls2.rdQLenPdf::5                   1563                       # What read queue length does an incoming req see
system.mem_ctrls2.rdQLenPdf::6                   1697                       # What read queue length does an incoming req see
system.mem_ctrls2.rdQLenPdf::7                   1771                       # What read queue length does an incoming req see
system.mem_ctrls2.rdQLenPdf::8                   1912                       # What read queue length does an incoming req see
system.mem_ctrls2.rdQLenPdf::9                   1880                       # What read queue length does an incoming req see
system.mem_ctrls2.rdQLenPdf::10                  1911                       # What read queue length does an incoming req see
system.mem_ctrls2.rdQLenPdf::11                  1873                       # What read queue length does an incoming req see
system.mem_ctrls2.rdQLenPdf::12                  1988                       # What read queue length does an incoming req see
system.mem_ctrls2.rdQLenPdf::13                  1938                       # What read queue length does an incoming req see
system.mem_ctrls2.rdQLenPdf::14                  2058                       # What read queue length does an incoming req see
system.mem_ctrls2.rdQLenPdf::15                  1971                       # What read queue length does an incoming req see
system.mem_ctrls2.rdQLenPdf::16                  1984                       # What read queue length does an incoming req see
system.mem_ctrls2.rdQLenPdf::17                  1978                       # What read queue length does an incoming req see
system.mem_ctrls2.rdQLenPdf::18                  2057                       # What read queue length does an incoming req see
system.mem_ctrls2.rdQLenPdf::19                  2050                       # What read queue length does an incoming req see
system.mem_ctrls2.rdQLenPdf::20                  2082                       # What read queue length does an incoming req see
system.mem_ctrls2.rdQLenPdf::21                  1988                       # What read queue length does an incoming req see
system.mem_ctrls2.rdQLenPdf::22                  2108                       # What read queue length does an incoming req see
system.mem_ctrls2.rdQLenPdf::23                  2098                       # What read queue length does an incoming req see
system.mem_ctrls2.rdQLenPdf::24                  2122                       # What read queue length does an incoming req see
system.mem_ctrls2.rdQLenPdf::25                  2184                       # What read queue length does an incoming req see
system.mem_ctrls2.rdQLenPdf::26                  2221                       # What read queue length does an incoming req see
system.mem_ctrls2.rdQLenPdf::27                  2457                       # What read queue length does an incoming req see
system.mem_ctrls2.rdQLenPdf::28                  2498                       # What read queue length does an incoming req see
system.mem_ctrls2.rdQLenPdf::29                  2635                       # What read queue length does an incoming req see
system.mem_ctrls2.rdQLenPdf::30                  2920                       # What read queue length does an incoming req see
system.mem_ctrls2.rdQLenPdf::31                 66400                       # What read queue length does an incoming req see
system.mem_ctrls2.wrQLenPdf::0                  16305                       # What write queue length does an incoming req see
system.mem_ctrls2.wrQLenPdf::1                  17921                       # What write queue length does an incoming req see
system.mem_ctrls2.wrQLenPdf::2                  18653                       # What write queue length does an incoming req see
system.mem_ctrls2.wrQLenPdf::3                  19133                       # What write queue length does an incoming req see
system.mem_ctrls2.wrQLenPdf::4                  19460                       # What write queue length does an incoming req see
system.mem_ctrls2.wrQLenPdf::5                   8082                       # What write queue length does an incoming req see
system.mem_ctrls2.wrQLenPdf::6                   9263                       # What write queue length does an incoming req see
system.mem_ctrls2.wrQLenPdf::7                  13519                       # What write queue length does an incoming req see
system.mem_ctrls2.bytesPerActivate::samples        75554                       # Bytes accessed per row activation
system.mem_ctrls2.bytesPerActivate::mean   267.860762                       # Bytes accessed per row activation
system.mem_ctrls2.bytesPerActivate::gmean   195.539380                       # Bytes accessed per row activation
system.mem_ctrls2.bytesPerActivate::stdev   223.346649                       # Bytes accessed per row activation
system.mem_ctrls2.bytesPerActivate::0-127        18521     24.51%     24.51% # Bytes accessed per row activation
system.mem_ctrls2.bytesPerActivate::128-255        19894     26.33%     50.84% # Bytes accessed per row activation
system.mem_ctrls2.bytesPerActivate::256-383        22044     29.18%     80.02% # Bytes accessed per row activation
system.mem_ctrls2.bytesPerActivate::384-511         5239      6.93%     86.96% # Bytes accessed per row activation
system.mem_ctrls2.bytesPerActivate::512-639         3742      4.95%     91.91% # Bytes accessed per row activation
system.mem_ctrls2.bytesPerActivate::640-767         1813      2.40%     94.31% # Bytes accessed per row activation
system.mem_ctrls2.bytesPerActivate::768-895         1135      1.50%     95.81% # Bytes accessed per row activation
system.mem_ctrls2.bytesPerActivate::896-1023          785      1.04%     96.85% # Bytes accessed per row activation
system.mem_ctrls2.bytesPerActivate::1024-1151         2381      3.15%    100.00% # Bytes accessed per row activation
system.mem_ctrls2.bytesPerActivate::total        75554                       # Bytes accessed per row activation
system.mem_ctrls2.rdPerTurnAround::samples        17059                       # Reads before turning the bus around for writes
system.mem_ctrls2.rdPerTurnAround::mean     11.365144                       # Reads before turning the bus around for writes
system.mem_ctrls2.rdPerTurnAround::stdev    26.597681                       # Reads before turning the bus around for writes
system.mem_ctrls2.rdPerTurnAround::0-127        17054     99.97%     99.97% # Reads before turning the bus around for writes
system.mem_ctrls2.rdPerTurnAround::128-255            3      0.02%     99.99% # Reads before turning the bus around for writes
system.mem_ctrls2.rdPerTurnAround::1152-1279            1      0.01%     99.99% # Reads before turning the bus around for writes
system.mem_ctrls2.rdPerTurnAround::2816-2943            1      0.01%    100.00% # Reads before turning the bus around for writes
system.mem_ctrls2.rdPerTurnAround::total        17059                       # Reads before turning the bus around for writes
system.mem_ctrls2.wrPerTurnAround::samples        17059                       # Writes before turning the bus around for reads
system.mem_ctrls2.wrPerTurnAround::mean      7.171112                       # Writes before turning the bus around for reads
system.mem_ctrls2.wrPerTurnAround::gmean     6.505433                       # Writes before turning the bus around for reads
system.mem_ctrls2.wrPerTurnAround::stdev     3.600748                       # Writes before turning the bus around for reads
system.mem_ctrls2.wrPerTurnAround::4-7          12077     70.80%     70.80% # Writes before turning the bus around for reads
system.mem_ctrls2.wrPerTurnAround::8-11          2223     13.03%     83.83% # Writes before turning the bus around for reads
system.mem_ctrls2.wrPerTurnAround::12-15         1649      9.67%     93.49% # Writes before turning the bus around for reads
system.mem_ctrls2.wrPerTurnAround::16-19         1110      6.51%    100.00% # Writes before turning the bus around for reads
system.mem_ctrls2.wrPerTurnAround::total        17059                       # Writes before turning the bus around for reads
system.mem_ctrls2.totQLat                 31150711751                       # Total ticks spent queuing
system.mem_ctrls2.totMemAccLat            34786186751                       # Total ticks spent from burst creation until serviced by the DRAM
system.mem_ctrls2.totBusLat                 969460000                       # Total ticks spent in databus transfers
system.mem_ctrls2.avgQLat                   160660.12                       # Average queueing delay per DRAM burst
system.mem_ctrls2.avgBusLat                   5000.00                       # Average bus latency per DRAM burst
system.mem_ctrls2.avgMemAccLat              179410.12                       # Average memory access latency per DRAM burst
system.mem_ctrls2.avgRdBW                      218.69                       # Average DRAM read bandwidth in MiByte/s
system.mem_ctrls2.avgWrBW                      137.98                       # Average achieved write bandwidth in MiByte/s
system.mem_ctrls2.avgRdBWSys                   218.71                       # Average system read bandwidth in MiByte/s
system.mem_ctrls2.avgWrBWSys                   137.98                       # Average system write bandwidth in MiByte/s
system.mem_ctrls2.peakBW                     12800.00                       # Theoretical peak bandwidth in MiByte/s
system.mem_ctrls2.busUtil                        2.79                       # Data bus utilization in percentage
system.mem_ctrls2.busUtilRead                    1.71                       # Data bus utilization in percentage for reads
system.mem_ctrls2.busUtilWrite                   1.08                       # Data bus utilization in percentage for writes
system.mem_ctrls2.avgRdQLen                      1.58                       # Average read queue length when enqueuing
system.mem_ctrls2.avgWrQLen                      2.93                       # Average write queue length when enqueuing
system.mem_ctrls2.readRowHits                  154139                       # Number of row buffer hits during reads
system.mem_ctrls2.writeRowHits                  86525                       # Number of row buffer hits during writes
system.mem_ctrls2.readRowHitRate                79.50                       # Row buffer hit rate for reads
system.mem_ctrls2.writeRowHitRate               70.73                       # Row buffer hit rate for writes
system.mem_ctrls2.avgGap                    179424.42                       # Average gap between requests
system.mem_ctrls2.pageHitRate                   76.10                       # Row buffer hit rate, read and write combined
system.mem_ctrls2.memoryStateTime::IDLE   11875676250                       # Time in different power states
system.mem_ctrls2.memoryStateTime::REF     1894620000                       # Time in different power states
system.mem_ctrls2.memoryStateTime::PRE_PDN            0                       # Time in different power states
system.mem_ctrls2.memoryStateTime::ACT    42968381250                       # Time in different power states
system.mem_ctrls2.memoryStateTime::ACT_PDN            0                       # Time in different power states
system.mem_ctrls2.actEnergy::0              288587880                       # Energy for activate commands per rank (pJ)
system.mem_ctrls2.actEnergy::1              282547440                       # Energy for activate commands per rank (pJ)
system.mem_ctrls2.preEnergy::0              157463625                       # Energy for precharge commands per rank (pJ)
system.mem_ctrls2.preEnergy::1              154167750                       # Energy for precharge commands per rank (pJ)
system.mem_ctrls2.readEnergy::0             755188200                       # Energy for read commands per rank (pJ)
system.mem_ctrls2.readEnergy::1             757021200                       # Energy for read commands per rank (pJ)
system.mem_ctrls2.writeEnergy::0            396316800                       # Energy for write commands per rank (pJ)
system.mem_ctrls2.writeEnergy::1            396355680                       # Energy for write commands per rank (pJ)
system.mem_ctrls2.refreshEnergy::0         3705876720                       # Energy for refresh commands per rank (pJ)
system.mem_ctrls2.refreshEnergy::1         3705876720                       # Energy for refresh commands per rank (pJ)
system.mem_ctrls2.actBackEnergy::0        21842559315                       # Energy for active background per rank (pJ)
system.mem_ctrls2.actBackEnergy::1        21342885345                       # Energy for active background per rank (pJ)
system.mem_ctrls2.preBackEnergy::0        14883058500                       # Energy for precharge background per rank (pJ)
system.mem_ctrls2.preBackEnergy::1        15321369000                       # Energy for precharge background per rank (pJ)
system.mem_ctrls2.totalEnergy::0          42029051040                       # Total energy per rank (pJ)
system.mem_ctrls2.totalEnergy::1          41960223135                       # Total energy per rank (pJ)
system.mem_ctrls2.averagePower::0          740.747988                       # Core power per rank (mW)
system.mem_ctrls2.averagePower::1          739.534920                       # Core power per rank (mW)
system.mem_ctrls3.bytes_read::ruby.dir_cntrl3     12389376                       # Number of bytes read from this memory
system.mem_ctrls3.bytes_read::total          12389376                       # Number of bytes read from this memory
system.mem_ctrls3.bytes_written::ruby.dir_cntrl3      7827392                       # Number of bytes written to this memory
system.mem_ctrls3.bytes_written::total        7827392                       # Number of bytes written to this memory
system.mem_ctrls3.num_reads::ruby.dir_cntrl3       193584                       # Number of read requests responded to by this memory
system.mem_ctrls3.num_reads::total             193584                       # Number of read requests responded to by this memory
system.mem_ctrls3.num_writes::ruby.dir_cntrl3       122303                       # Number of write requests responded to by this memory
system.mem_ctrls3.num_writes::total            122303                       # Number of write requests responded to by this memory
system.mem_ctrls3.bw_read::ruby.dir_cntrl3    218343825                       # Total read bandwidth from this memory (bytes/s)
system.mem_ctrls3.bw_read::total            218343825                       # Total read bandwidth from this memory (bytes/s)
system.mem_ctrls3.bw_write::ruby.dir_cntrl3    137945826                       # Write bandwidth from this memory (bytes/s)
system.mem_ctrls3.bw_write::total           137945826                       # Write bandwidth from this memory (bytes/s)
system.mem_ctrls3.bw_total::ruby.dir_cntrl3    356289651                       # Total bandwidth to/from this memory (bytes/s)
system.mem_ctrls3.bw_total::total           356289651                       # Total bandwidth to/from this memory (bytes/s)
system.mem_ctrls3.readReqs                     193584                       # Number of read requests accepted
system.mem_ctrls3.writeReqs                    122303                       # Number of write requests accepted
system.mem_ctrls3.readBursts                   193584                       # Number of DRAM read bursts, including those serviced by the write queue
system.mem_ctrls3.writeBursts                  122303                       # Number of DRAM write bursts, including those merged in the write queue
system.mem_ctrls3.bytesReadDRAM              12388480                       # Total number of bytes read from DRAM
system.mem_ctrls3.bytesReadWrQ                    896                       # Total number of bytes read from write queue
system.mem_ctrls3.bytesWritten                7827264                       # Total number of bytes written to DRAM
system.mem_ctrls3.bytesReadSys               12389376                       # Total read bytes from the system interface side
system.mem_ctrls3.bytesWrittenSys             7827392                       # Total written bytes from the system interface side
system.mem_ctrls3.servicedByWrQ                    14                       # Number of DRAM read bursts serviced by the write queue
system.mem_ctrls3.mergedWrBursts                    0                       # Number of DRAM write bursts merged with an existing one
system.mem_ctrls3.neitherReadNorWriteReqs            0                       # Number of requests that are neither read nor write
system.mem_ctrls3.perBankRdBursts::0            11866                       # Per bank write bursts
system.mem_ctrls3.perBankRdBursts::1            11985                       # Per bank write bursts
system.mem_ctrls3.perBankRdBursts::2            11805                       # Per bank write bursts
system.mem_ctrls3.perBankRdBursts::3            12177                       # Per bank write bursts
system.mem_ctrls3.perBankRdBursts::4            11959                       # Per bank write bursts
system.mem_ctrls3.perBankRdBursts::5            12059                       # Per bank write bursts
system.mem_ctrls3.perBankRdBursts::6            12266                       # Per bank write bursts
system.mem_ctrls3.perBankRdBursts::7            12449                       # Per bank write bursts
system.mem_ctrls3.perBankRdBursts::8            12204                       # Per bank write bursts
system.mem_ctrls3.perBankRdBursts::9            12533                       # Per bank write bursts
system.mem_ctrls3.perBankRdBursts::10           12233                       # Per bank write bursts
system.mem_ctrls3.perBankRdBursts::11           12496                       # Per bank write bursts
system.mem_ctrls3.perBankRdBursts::12           12042                       # Per bank write bursts
system.mem_ctrls3.perBankRdBursts::13           11791                       # Per bank write bursts
system.mem_ctrls3.perBankRdBursts::14           12001                       # Per bank write bursts
system.mem_ctrls3.perBankRdBursts::15           11704                       # Per bank write bursts
system.mem_ctrls3.perBankWrBursts::0             7589                       # Per bank write bursts
system.mem_ctrls3.perBankWrBursts::1             7453                       # Per bank write bursts
system.mem_ctrls3.perBankWrBursts::2             7590                       # Per bank write bursts
system.mem_ctrls3.perBankWrBursts::3             7628                       # Per bank write bursts
system.mem_ctrls3.perBankWrBursts::4             7601                       # Per bank write bursts
system.mem_ctrls3.perBankWrBursts::5             7692                       # Per bank write bursts
system.mem_ctrls3.perBankWrBursts::6             7773                       # Per bank write bursts
system.mem_ctrls3.perBankWrBursts::7             7808                       # Per bank write bursts
system.mem_ctrls3.perBankWrBursts::8             7711                       # Per bank write bursts
system.mem_ctrls3.perBankWrBursts::9             7870                       # Per bank write bursts
system.mem_ctrls3.perBankWrBursts::10            7683                       # Per bank write bursts
system.mem_ctrls3.perBankWrBursts::11            7727                       # Per bank write bursts
system.mem_ctrls3.perBankWrBursts::12            7557                       # Per bank write bursts
system.mem_ctrls3.perBankWrBursts::13            7600                       # Per bank write bursts
system.mem_ctrls3.perBankWrBursts::14            7596                       # Per bank write bursts
system.mem_ctrls3.perBankWrBursts::15            7423                       # Per bank write bursts
system.mem_ctrls3.numRdRetry                    57148                       # Number of times read queue was full causing retry
system.mem_ctrls3.numWrRetry                     6463                       # Number of times write queue was full causing retry
system.mem_ctrls3.totGap                  56741447000                       # Total gap between requests
system.mem_ctrls3.readPktSize::0                    0                       # Read request sizes (log2)
system.mem_ctrls3.readPktSize::1                    0                       # Read request sizes (log2)
system.mem_ctrls3.readPktSize::2                    0                       # Read request sizes (log2)
system.mem_ctrls3.readPktSize::3                    0                       # Read request sizes (log2)
system.mem_ctrls3.readPktSize::4                    0                       # Read request sizes (log2)
system.mem_ctrls3.readPktSize::5                    0                       # Read request sizes (log2)
system.mem_ctrls3.readPktSize::6               193584                       # Read request sizes (log2)
system.mem_ctrls3.writePktSize::0                   0                       # Write request sizes (log2)
system.mem_ctrls3.writePktSize::1                   0                       # Write request sizes (log2)
system.mem_ctrls3.writePktSize::2                   0                       # Write request sizes (log2)
system.mem_ctrls3.writePktSize::3                   0                       # Write request sizes (log2)
system.mem_ctrls3.writePktSize::4                   0                       # Write request sizes (log2)
system.mem_ctrls3.writePktSize::5                   0                       # Write request sizes (log2)
system.mem_ctrls3.writePktSize::6              122303                       # Write request sizes (log2)
system.mem_ctrls3.rdQLenPdf::0                  67430                       # What read queue length does an incoming req see
system.mem_ctrls3.rdQLenPdf::1                   1605                       # What read queue length does an incoming req see
system.mem_ctrls3.rdQLenPdf::2                   1369                       # What read queue length does an incoming req see
system.mem_ctrls3.rdQLenPdf::3                   1528                       # What read queue length does an incoming req see
system.mem_ctrls3.rdQLenPdf::4                   1629                       # What read queue length does an incoming req see
system.mem_ctrls3.rdQLenPdf::5                   1714                       # What read queue length does an incoming req see
system.mem_ctrls3.rdQLenPdf::6                   1820                       # What read queue length does an incoming req see
system.mem_ctrls3.rdQLenPdf::7                   1873                       # What read queue length does an incoming req see
system.mem_ctrls3.rdQLenPdf::8                   1956                       # What read queue length does an incoming req see
system.mem_ctrls3.rdQLenPdf::9                   2014                       # What read queue length does an incoming req see
system.mem_ctrls3.rdQLenPdf::10                  1993                       # What read queue length does an incoming req see
system.mem_ctrls3.rdQLenPdf::11                  2084                       # What read queue length does an incoming req see
system.mem_ctrls3.rdQLenPdf::12                  2153                       # What read queue length does an incoming req see
system.mem_ctrls3.rdQLenPdf::13                  2233                       # What read queue length does an incoming req see
system.mem_ctrls3.rdQLenPdf::14                  2251                       # What read queue length does an incoming req see
system.mem_ctrls3.rdQLenPdf::15                  2156                       # What read queue length does an incoming req see
system.mem_ctrls3.rdQLenPdf::16                  2215                       # What read queue length does an incoming req see
system.mem_ctrls3.rdQLenPdf::17                  2280                       # What read queue length does an incoming req see
system.mem_ctrls3.rdQLenPdf::18                  2219                       # What read queue length does an incoming req see
system.mem_ctrls3.rdQLenPdf::19                  2310                       # What read queue length does an incoming req see
system.mem_ctrls3.rdQLenPdf::20                  2380                       # What read queue length does an incoming req see
system.mem_ctrls3.rdQLenPdf::21                  2337                       # What read queue length does an incoming req see
system.mem_ctrls3.rdQLenPdf::22                  2329                       # What read queue length does an incoming req see
system.mem_ctrls3.rdQLenPdf::23                  2407                       # What read queue length does an incoming req see
system.mem_ctrls3.rdQLenPdf::24                  2468                       # What read queue length does an incoming req see
[...]
system.ruby.L2Cache_Controller.ISS.Mem_Data::total       288615                      
system.ruby.L2Cache_Controller.IS.Mem_Data |         446      3.30%      3.30% |         421      3.12%      6.42% |         415      3.07%      9.49% |         404      2.99%     12.49% |         411      3.04%     15.53% |         401      2.97%     18.50% |         414      3.07%     21.56% |         417      3.09%     24.65% |         407      3.01%     27.67% |         416      3.08%     30.75% |         443      3.28%     34.03% |         438      3.24%     37.27% |         452      3.35%     40.62% |         429      3.18%     43.79% |         448      3.32%     47.11% |         440      3.26%     50.37% |         450      3.33%     53.70% |         440      3.26%     56.96% |         434      3.21%     60.17% |         406      3.01%     63.18% |         385      2.85%     66.03% |         408      3.02%     69.05% |         404      2.99%     72.05% |         395      2.93%     74.97% |         427      3.16%     78.13% |         447      3.31%     81.44% |         436      3.23%     84.67% |         401      2.97%     87.64% |         415      3.07%     90.71% |         427      3.16%     93.88% |         426      3.15%     97.03% |         401      2.97%    100.00%
system.ruby.L2Cache_Controller.IS.Mem_Data::total        13504                      
system.ruby.L2Cache_Controller.IM.L1_GETX |           2    100.00%    100.00% |           0      0.00%    100.00% |           0      0.00%    100.00% |           0      0.00%    100.00% |           0      0.00%    100.00% |           0      0.00%    100.00% |           0      0.00%    100.00% |           0      0.00%    100.00% |           0      0.00%    100.00% |           0      0.00%    100.00% |           0      0.00%    100.00% |           0      0.00%    100.00% |           0      0.00%    100.00% |           0      0.00%    100.00% |           0      0.00%    100.00% |           0      0.00%    100.00% |           0      0.00%    100.00% |           0      0.00%    100.00% |           0      0.00%    100.00% |           0      0.00%    100.00% |           0      0.00%    100.00% |           0      0.00%    100.00% |           0      0.00%    100.00% |           0      0.00%    100.00% |           0      0.00%    100.00% |           0      0.00%    100.00% |           0      0.00%    100.00% |           0      0.00%    100.00% |           0      0.00%    100.00% |           0      0.00%    100.00% |           0      0.00%    100.00% |           0      0.00%    100.00%
system.ruby.L2Cache_Controller.IM.L1_GETX::total            2                      
system.ruby.L2Cache_Controller.IM.Mem_Data |       14975      3.14%      3.14% |       14885      3.12%      6.26% |       14890      3.12%      9.39% |       14891      3.12%     12.51% |       14883      3.12%     15.63% |       14891      3.12%     18.76% |       14894      3.12%     21.88% |       14887      3.12%     25.00% |       14895      3.12%     28.13% |       14899      3.13%     31.25% |       14880      3.12%     34.37% |       14902      3.13%     37.50% |       14892      3.12%     40.62% |       14893      3.12%     43.75% |       14888      3.12%     46.87% |       14883      3.12%     49.99% |       14922      3.13%     53.12% |       14897      3.12%     56.25% |       14898      3.13%     59.37% |       14901      3.13%     62.50% |       14914      3.13%     65.63% |       14921      3.13%     68.76% |       14886      3.12%     71.88% |       14898      3.13%     75.01% |       14908      3.13%     78.13% |       14899      3.13%     81.26% |       14902      3.13%     84.38% |       14893      3.12%     87.51% |       14887      3.12%     90.63% |       14883      3.12%     93.75% |       14895      3.12%     96.88% |       14882      3.12%    100.00%
system.ruby.L2Cache_Controller.IM.Mem_Data::total       476714                      
system.ruby.L2Cache_Controller.SS_MB.Exclusive_Unblock |           3      6.12%      6.12% |           6     12.24%     18.37% |           2      4.08%     22.45% |           3      6.12%     28.57% |           0      0.00%     28.57% |           0      0.00%     28.57% |           0      0.00%     28.57% |           0      0.00%     28.57% |           1      2.04%     30.61% |           0      0.00%     30.61% |           0      0.00%     30.61% |           1      2.04%     32.65% |           4      8.16%     40.82% |           0      0.00%     40.82% |           2      4.08%     44.90% |           0      0.00%     44.90% |           1      2.04%     46.94% |           2      4.08%     51.02% |          13     26.53%     77.55% |           3      6.12%     83.67% |           0      0.00%     83.67% |           0      0.00%     83.67% |           0      0.00%     83.67% |           0      0.00%     83.67% |           1      2.04%     85.71% |           0      0.00%     85.71% |           3      6.12%     91.84% |           4      8.16%    100.00% |           0      0.00%    100.00% |           0      0.00%    100.00% |           0      0.00%    100.00% |           0      0.00%    100.00%
system.ruby.L2Cache_Controller.SS_MB.Exclusive_Unblock::total           49                      
system.ruby.L2Cache_Controller.MT_MB.Exclusive_Unblock |       75919      7.22%      7.22% |       32861      3.13%     10.35% |       29486      2.81%     13.16% |       32398      3.08%     16.24% |       29788      2.83%     19.07% |       29679      2.82%     21.90% |       29091      2.77%     24.66% |       29699      2.83%     27.49% |       30401      2.89%     30.38% |       29990      2.85%     33.24% |       32546      3.10%     36.33% |       30867      2.94%     39.27% |       30522      2.90%     42.17% |       30305      2.88%     45.06% |       29597      2.82%     47.87% |       30194      2.87%     50.74% |       31507      3.00%     53.74% |       30315      2.88%     56.63% |       30918      2.94%     59.57% |       31639      3.01%     62.58% |       32126      3.06%     65.64% |       37031      3.52%     69.16% |       31245      2.97%     72.13% |       31250      2.97%     75.10% |       31260      2.97%     78.08% |       31240      2.97%     81.05% |       31170      2.97%     84.02% |       30878      2.94%     86.95% |       32693      3.11%     90.07% |       32156      3.06%     93.12% |       34135      3.25%     96.37% |       38127      3.63%    100.00%
system.ruby.L2Cache_Controller.MT_MB.Exclusive_Unblock::total      1051033                      
system.ruby.L2Cache_Controller.MT_IIB.WB_Data |           1      1.28%      1.28% |           2      2.56%      3.85% |           1      1.28%      5.13% |           3      3.85%      8.97% |           3      3.85%     12.82% |           3      3.85%     16.67% |           4      5.13%     21.79% |           3      3.85%     25.64% |           4      5.13%     30.77% |           3      3.85%     34.62% |           2      2.56%     37.18% |           2      2.56%     39.74% |           3      3.85%     43.59% |           3      3.85%     47.44% |           4      5.13%     52.56% |           3      3.85%     56.41% |           3      3.85%     60.26% |           1      1.28%     61.54% |           2      2.56%     64.10% |           0      0.00%     64.10% |           1      1.28%     65.38% |           0      0.00%     65.38% |           1      1.28%     66.67% |           2      2.56%     69.23% |           3      3.85%     73.08% |           5      6.41%     79.49% |           3      3.85%     83.33% |           4      5.13%     88.46% |           3      3.85%     92.31% |           2      2.56%     94.87% |           2      2.56%     97.44% |           2      2.56%    100.00%
system.ruby.L2Cache_Controller.MT_IIB.WB_Data::total           78                      
system.ruby.L2Cache_Controller.MT_IIB.WB_Data_clean |          29     42.65%     42.65% |           0      0.00%     42.65% |           0      0.00%     42.65% |          12     17.65%     60.29% |           0      0.00%     60.29% |           0      0.00%     60.29% |           0      0.00%     60.29% |           0      0.00%     60.29% |           0      0.00%     60.29% |           0      0.00%     60.29% |           0      0.00%     60.29% |           0      0.00%     60.29% |           0      0.00%     60.29% |           0      0.00%     60.29% |           0      0.00%     60.29% |           0      0.00%     60.29% |          10     14.71%     75.00% |           0      0.00%     75.00% |           0      0.00%     75.00% |          15     22.06%     97.06% |           0      0.00%     97.06% |           0      0.00%     97.06% |           0      0.00%     97.06% |           0      0.00%     97.06% |           0      0.00%     97.06% |           0      0.00%     97.06% |           0      0.00%     97.06% |           2      2.94%    100.00% |           0      0.00%    100.00% |           0      0.00%    100.00% |           0      0.00%    100.00% |           0      0.00%    100.00%
system.ruby.L2Cache_Controller.MT_IIB.WB_Data_clean::total           68                      
system.ruby.L2Cache_Controller.MT_IIB.Unblock |           0      0.00%      0.00% |           0      0.00%      0.00% |           0      0.00%      0.00% |           0      0.00%      0.00% |           0      0.00%      0.00% |           0      0.00%      0.00% |           0      0.00%      0.00% |           0      0.00%      0.00% |           1     25.00%     25.00% |           0      0.00%     25.00% |           0      0.00%     25.00% |           0      0.00%     25.00% |           0      0.00%     25.00% |           0      0.00%     25.00% |           0      0.00%     25.00% |           0      0.00%     25.00% |           1     25.00%     50.00% |           0      0.00%     50.00% |           0      0.00%     50.00% |           0      0.00%     50.00% |           0      0.00%     50.00% |           0      0.00%     50.00% |           0      0.00%     50.00% |           0      0.00%     50.00% |           0      0.00%     50.00% |           0      0.00%     50.00% |           1     25.00%     75.00% |           1     25.00%    100.00% |           0      0.00%    100.00% |           0      0.00%    100.00% |           0      0.00%    100.00% |           0      0.00%    100.00%
system.ruby.L2Cache_Controller.MT_IIB.Unblock::total            4                      
system.ruby.L2Cache_Controller.MT_IB.WB_Data |           0      0.00%      0.00% |           0      0.00%      0.00% |           0      0.00%      0.00% |           0      0.00%      0.00% |           0      0.00%      0.00% |           0      0.00%      0.00% |           0      0.00%      0.00% |           0      0.00%      0.00% |           1     33.33%     33.33% |           0      0.00%     33.33% |           0      0.00%     33.33% |           0      0.00%     33.33% |           0      0.00%     33.33% |           0      0.00%     33.33% |           0      0.00%     33.33% |           0      0.00%     33.33% |           0      0.00%     33.33% |           0      0.00%     33.33% |           0      0.00%     33.33% |           0      0.00%     33.33% |           0      0.00%     33.33% |           0      0.00%     33.33% |           0      0.00%     33.33% |           0      0.00%     33.33% |           0      0.00%     33.33% |           0      0.00%     33.33% |           1     33.33%     66.67% |           1     33.33%    100.00% |           0      0.00%    100.00% |           0      0.00%    100.00% |           0      0.00%    100.00% |           0      0.00%    100.00%
system.ruby.L2Cache_Controller.MT_IB.WB_Data::total            3                      
system.ruby.L2Cache_Controller.MT_IB.WB_Data_clean |           0      0.00%      0.00% |           0      0.00%      0.00% |           0      0.00%      0.00% |           0      0.00%      0.00% |           0      0.00%      0.00% |           0      0.00%      0.00% |           0      0.00%      0.00% |           0      0.00%      0.00% |           0      0.00%      0.00% |           0      0.00%      0.00% |           0      0.00%      0.00% |           0      0.00%      0.00% |           0      0.00%      0.00% |           0      0.00%      0.00% |           0      0.00%      0.00% |           0      0.00%      0.00% |           1    100.00%    100.00% |           0      0.00%    100.00% |           0      0.00%    100.00% |           0      0.00%    100.00% |           0      0.00%    100.00% |           0      0.00%    100.00% |           0      0.00%    100.00% |           0      0.00%    100.00% |           0      0.00%    100.00% |           0      0.00%    100.00% |           0      0.00%    100.00% |           0      0.00%    100.00% |           0      0.00%    100.00% |           0      0.00%    100.00% |           0      0.00%    100.00% |           0      0.00%    100.00%
system.ruby.L2Cache_Controller.MT_IB.WB_Data_clean::total            1                      
system.ruby.L2Cache_Controller.MT_SB.Unblock |          30     20.55%     20.55% |           2      1.37%     21.92% |           1      0.68%     22.60% |          15     10.27%     32.88% |           3      2.05%     34.93% |           3      2.05%     36.99% |           4      2.74%     39.73% |           3      2.05%     41.78% |           4      2.74%     44.52% |           3      2.05%     46.58% |           2      1.37%     47.95% |           2      1.37%     49.32% |           3      2.05%     51.37% |           3      2.05%     53.42% |           4      2.74%     56.16% |           3      2.05%     58.22% |          13      8.90%     67.12% |           1      0.68%     67.81% |           2      1.37%     69.18% |          15     10.27%     79.45% |           1      0.68%     80.14% |           0      0.00%     80.14% |           1      0.68%     80.82% |           2      1.37%     82.19% |           3      2.05%     84.25% |           5      3.42%     87.67% |           3      2.05%     89.73% |           6      4.11%     93.84% |           3      2.05%     95.89% |           2      1.37%     97.26% |           2      1.37%     98.63% |           2      1.37%    100.00%
system.ruby.L2Cache_Controller.MT_SB.Unblock::total          146                      
system.ruby.SimicsNetworkPortInterface_Controller.MessageSend |       47649     16.18%     16.18% |      147274     50.00%     66.18% |       12340      4.19%     70.37% |       13506      4.59%     74.95% |       12189      4.14%     79.09% |       13398      4.55%     83.64% |       12342      4.19%     87.83% |       13539      4.60%     92.43% |       10768      3.66%     96.08% |       11543      3.92%    100.00% |           0      0.00%    100.00% |           0      0.00%    100.00% |           0      0.00%    100.00% |           0      0.00%    100.00% |           0      0.00%    100.00% |           0      0.00%    100.00% |           0      0.00%    100.00% |           0      0.00%    100.00% |           0      0.00%    100.00% |           0      0.00%    100.00% |           0      0.00%    100.00% |           0      0.00%    100.00% |           0      0.00%    100.00% |           0      0.00%    100.00% |           0      0.00%    100.00% |           0      0.00%    100.00% |           0      0.00%    100.00% |           0      0.00%    100.00% |           0      0.00%    100.00% |           0      0.00%    100.00% |           0      0.00%    100.00% |           0      0.00%    100.00%
system.ruby.SimicsNetworkPortInterface_Controller.MessageSend::total       294548                      
system.ruby.SimicsNetworkPortInterface_Controller.MessageRecv |       47649     16.18%     16.18% |      147274     50.00%     66.18% |       12340      4.19%     70.37% |       13506      4.59%     74.95% |       12189      4.14%     79.09% |       13398      4.55%     83.64% |       12342      4.19%     87.83% |       13539      4.60%     92.43% |       10768      3.66%     96.08% |       11543      3.92%    100.00% |           0      0.00%    100.00% |           0      0.00%    100.00% |           0      0.00%    100.00% |           0      0.00%    100.00% |           0      0.00%    100.00% |           0      0.00%    100.00% |           0      0.00%    100.00% |           0      0.00%    100.00% |           0      0.00%    100.00% |           0      0.00%    100.00% |           0      0.00%    100.00% |           0      0.00%    100.00% |           0      0.00%    100.00% |           0      0.00%    100.00% |           0      0.00%    100.00% |           0      0.00%    100.00% |           0      0.00%    100.00% |           0      0.00%    100.00% |           0      0.00%    100.00% |           0      0.00%    100.00% |           0      0.00%    100.00% |           0      0.00%    100.00%
system.ruby.SimicsNetworkPortInterface_Controller.MessageRecv::total       294548                      
system.ruby.SimicsNetworkPortInterface_Controller.A.MessageSend |       47649     16.18%     16.18% |      147274     50.00%     66.18% |       12340      4.19%     70.37% |       13506      4.59%     74.95% |       12189      4.14%     79.09% |       13398      4.55%     83.64% |       12342      4.19%     87.83% |       13539      4.60%     92.43% |       10768      3.66%     96.08% |       11543      3.92%    100.00% |           0      0.00%    100.00% |           0      0.00%    100.00% |           0      0.00%    100.00% |           0      0.00%    100.00% |           0      0.00%    100.00% |           0      0.00%    100.00% |           0      0.00%    100.00% |           0      0.00%    100.00% |           0      0.00%    100.00% |           0      0.00%    100.00% |           0      0.00%    100.00% |           0      0.00%    100.00% |           0      0.00%    100.00% |           0      0.00%    100.00% |           0      0.00%    100.00% |           0      0.00%    100.00% |           0      0.00%    100.00% |           0      0.00%    100.00% |           0      0.00%    100.00% |           0      0.00%    100.00% |           0      0.00%    100.00% |           0      0.00%    100.00%
system.ruby.SimicsNetworkPortInterface_Controller.A.MessageSend::total       294548                      
system.ruby.SimicsNetworkPortInterface_Controller.A.MessageRecv |       47649     16.18%     16.18% |      147274     50.00%     66.18% |       12340      4.19%     70.37% |       13506      4.59%     74.95% |       12189      4.14%     79.09% |       13398      4.55%     83.64% |       12342      4.19%     87.83% |       13539      4.60%     92.43% |       10768      3.66%     96.08% |       11543      3.92%    100.00% |           0      0.00%    100.00% |           0      0.00%    100.00% |           0      0.00%    100.00% |           0      0.00%    100.00% |           0      0.00%    100.00% |           0      0.00%    100.00% |           0      0.00%    100.00% |           0      0.00%    100.00% |           0      0.00%    100.00% |           0      0.00%    100.00% |           0      0.00%    100.00% |           0      0.00%    100.00% |           0      0.00%    100.00% |           0      0.00%    100.00% |           0      0.00%    100.00% |           0      0.00%    100.00% |           0      0.00%    100.00% |           0      0.00%    100.00% |           0      0.00%    100.00% |           0      0.00%    100.00% |           0      0.00%    100.00% |           0      0.00%    100.00%
system.ruby.SimicsNetworkPortInterface_Controller.A.MessageRecv::total       294548                      
system.switch_cpus.kern.inst.arm                    0                       # number of arm instructions executed
system.switch_cpus.kern.inst.quiesce                0                       # number of quiesce instructions executed

---------- End Simulation Statistics   ----------
