
---------- Begin Simulation Statistics ----------
sim_seconds                                  0.130760                       # Number of seconds simulated
sim_ticks                                130760366500                       # Number of ticks simulated
final_tick                               5306928445000                       # Number of ticks from beginning of simulation (restored from checkpoints and never reset)
sim_freq                                 1000000000000                       # Frequency of simulated ticks
host_inst_rate                                  32831                       # Simulator instruction rate (inst/s)
host_op_rate                                    56670                       # Simulator op (including micro ops) rate (op/s)
host_tick_rate                              100338721                       # Simulator tick rate (ticks/s)
host_mem_usage                                3748580                       # Number of bytes of host memory used
host_seconds                                  1303.19                       # Real time elapsed on the host
sim_insts                                    42784529                       # Number of instructions simulated
sim_ops                                      73851863                       # Number of ops (including micro ops) simulated
system.voltage_domain.voltage                       1                       # Voltage in Volts
system.clk_domain.clock                           500                       # Clock period in ticks
system.mem_ctrls0.bytes_read::ruby.dir_cntrl0     21548928                       # Number of bytes read from this memory
system.mem_ctrls0.bytes_read::total          21548928                       # Number of bytes read from this memory
system.mem_ctrls0.bytes_written::ruby.dir_cntrl0     13566016                       # Number of bytes written to this memory
system.mem_ctrls0.bytes_written::total       13566016                       # Number of bytes written to this memory
system.mem_ctrls0.num_reads::ruby.dir_cntrl0       336702                       # Number of read requests responded to by this memory
system.mem_ctrls0.num_reads::total             336702                       # Number of read requests responded to by this memory
system.mem_ctrls0.num_writes::ruby.dir_cntrl0       211969                       # Number of write requests responded to by this memory
system.mem_ctrls0.num_writes::total            211969                       # Number of write requests responded to by this memory
system.mem_ctrls0.bw_read::ruby.dir_cntrl0    164797091                       # Total read bandwidth from this memory (bytes/s)
system.mem_ctrls0.bw_read::total            164797091                       # Total read bandwidth from this memory (bytes/s)
system.mem_ctrls0.bw_write::ruby.dir_cntrl0    103747155                       # Write bandwidth from this memory (bytes/s)
system.mem_ctrls0.bw_write::total           103747155                       # Write bandwidth from this memory (bytes/s)
system.mem_ctrls0.bw_total::ruby.dir_cntrl0    268544246                       # Total bandwidth to/from this memory (bytes/s)
system.mem_ctrls0.bw_total::total           268544246                       # Total bandwidth to/from this memory (bytes/s)
system.mem_ctrls0.readReqs                     336702                       # Number of read requests accepted
system.mem_ctrls0.writeReqs                    211969                       # Number of write requests accepted
system.mem_ctrls0.readBursts                   336702                       # Number of DRAM read bursts, including those serviced by the write queue
system.mem_ctrls0.writeBursts                  211969                       # Number of DRAM write bursts, including those merged in the write queue
system.mem_ctrls0.bytesReadDRAM              21547840                       # Total number of bytes read from DRAM
system.mem_ctrls0.bytesReadWrQ                   1088                       # Total number of bytes read from write queue
system.mem_ctrls0.bytesWritten               13565952                       # Total number of bytes written to DRAM
system.mem_ctrls0.bytesReadSys               21548928                       # Total read bytes from the system interface side
system.mem_ctrls0.bytesWrittenSys            13566016                       # Total written bytes from the system interface side
system.mem_ctrls0.servicedByWrQ                    17                       # Number of DRAM read bursts serviced by the write queue
system.mem_ctrls0.mergedWrBursts                    0                       # Number of DRAM write bursts merged with an existing one
system.mem_ctrls0.neitherReadNorWriteReqs            0                       # Number of requests that are neither read nor write
system.mem_ctrls0.perBankRdBursts::0            20738                       # Per bank write bursts
system.mem_ctrls0.perBankRdBursts::1            21367                       # Per bank write bursts
system.mem_ctrls0.perBankRdBursts::2            20952                       # Per bank write bursts
system.mem_ctrls0.perBankRdBursts::3            21489                       # Per bank write bursts
system.mem_ctrls0.perBankRdBursts::4            21082                       # Per bank write bursts
system.mem_ctrls0.perBankRdBursts::5            21325                       # Per bank write bursts
system.mem_ctrls0.perBankRdBursts::6            21240                       # Per bank write bursts
system.mem_ctrls0.perBankRdBursts::7            21209                       # Per bank write bursts
system.mem_ctrls0.perBankRdBursts::8            20909                       # Per bank write bursts
system.mem_ctrls0.perBankRdBursts::9            21116                       # Per bank write bursts
system.mem_ctrls0.perBankRdBursts::10           20858                       # Per bank write bursts
system.mem_ctrls0.perBankRdBursts::11           21256                       # Per bank write bursts
system.mem_ctrls0.perBankRdBursts::12           20756                       # Per bank write bursts
system.mem_ctrls0.perBankRdBursts::13           20649                       # Per bank write bursts
system.mem_ctrls0.perBankRdBursts::14           20894                       # Per bank write bursts
system.mem_ctrls0.perBankRdBursts::15           20845                       # Per bank write bursts
system.mem_ctrls0.perBankWrBursts::0            13288                       # Per bank write bursts
system.mem_ctrls0.perBankWrBursts::1            13242                       # Per bank write bursts
system.mem_ctrls0.perBankWrBursts::2            13177                       # Per bank write bursts
system.mem_ctrls0.perBankWrBursts::3            13390                       # Per bank write bursts
system.mem_ctrls0.perBankWrBursts::4            13216                       # Per bank write bursts
system.mem_ctrls0.perBankWrBursts::5            13361                       # Per bank write bursts
system.mem_ctrls0.perBankWrBursts::6            13270                       # Per bank write bursts
system.mem_ctrls0.perBankWrBursts::7            13456                       # Per bank write bursts
system.mem_ctrls0.perBankWrBursts::8            13169                       # Per bank write bursts
system.mem_ctrls0.perBankWrBursts::9            13389                       # Per bank write bursts
system.mem_ctrls0.perBankWrBursts::10           13187                       # Per bank write bursts
system.mem_ctrls0.perBankWrBursts::11           13126                       # Per bank write bursts
system.mem_ctrls0.perBankWrBursts::12           13103                       # Per bank write bursts
system.mem_ctrls0.perBankWrBursts::13           13091                       # Per bank write bursts
system.mem_ctrls0.perBankWrBursts::14           13358                       # Per bank write bursts
system.mem_ctrls0.perBankWrBursts::15           13145                       # Per bank write bursts
system.mem_ctrls0.numRdRetry                    79660                       # Number of times read queue was full causing retry
system.mem_ctrls0.numWrRetry                     2886                       # Number of times write queue was full causing retry
system.mem_ctrls0.totGap                 130759824000                       # Total gap between requests
system.mem_ctrls0.readPktSize::0                    0                       # Read request sizes (log2)
system.mem_ctrls0.readPktSize::1                    0                       # Read request sizes (log2)
system.mem_ctrls0.readPktSize::2                    0                       # Read request sizes (log2)
system.mem_ctrls0.readPktSize::3                    0                       # Read request sizes (log2)
system.mem_ctrls0.readPktSize::4                    0                       # Read request sizes (log2)
system.mem_ctrls0.readPktSize::5                    0                       # Read request sizes (log2)
system.mem_ctrls0.readPktSize::6               336702                       # Read request sizes (log2)
system.mem_ctrls0.writePktSize::0                   0                       # Write request sizes (log2)
system.mem_ctrls0.writePktSize::1                   0                       # Write request sizes (log2)
system.mem_ctrls0.writePktSize::2                   0                       # Write request sizes (log2)
system.mem_ctrls0.writePktSize::3                   0                       # Write request sizes (log2)
system.mem_ctrls0.writePktSize::4                   0                       # Write request sizes (log2)
system.mem_ctrls0.writePktSize::5                   0                       # Write request sizes (log2)
system.mem_ctrls0.writePktSize::6              211969                       # Write request sizes (log2)
system.mem_ctrls0.rdQLenPdf::0                 175848                       # What read queue length does an incoming req see
system.mem_ctrls0.rdQLenPdf::1                   5473                       # What read queue length does an incoming req see
system.mem_ctrls0.rdQLenPdf::2                   2935                       # What read queue length does an incoming req see
system.mem_ctrls0.rdQLenPdf::3                   1770                       # What read queue length does an incoming req see
system.mem_ctrls0.rdQLenPdf::4                   2026                       # What read queue length does an incoming req see
system.mem_ctrls0.rdQLenPdf::5                   2271                       # What read queue length does an incoming req see
system.mem_ctrls0.rdQLenPdf::6                   2525                       # What read queue length does an incoming req see
system.mem_ctrls0.rdQLenPdf::7                   2794                       # What read queue length does an incoming req see
system.mem_ctrls0.rdQLenPdf::8                   2848                       # What read queue length does an incoming req see
system.mem_ctrls0.rdQLenPdf::9                   2955                       # What read queue length does an incoming req see
system.mem_ctrls0.rdQLenPdf::10                  2939                       # What read queue length does an incoming req see
system.mem_ctrls0.rdQLenPdf::11                  2860                       # What read queue length does an incoming req see
system.mem_ctrls0.rdQLenPdf::12                  2876                       # What read queue length does an incoming req see
system.mem_ctrls0.rdQLenPdf::13                  2835                       # What read queue length does an incoming req see
system.mem_ctrls0.rdQLenPdf::14                  2817                       # What read queue length does an incoming req see
system.mem_ctrls0.rdQLenPdf::15                  2784                       # What read queue length does an incoming req see
system.mem_ctrls0.rdQLenPdf::16                  2904                       # What read queue length does an incoming req see
system.mem_ctrls0.rdQLenPdf::17                  2753                       # What read queue length does an incoming req see
system.mem_ctrls0.rdQLenPdf::18                  2694                       # What read queue length does an incoming req see
system.mem_ctrls0.rdQLenPdf::19                  2591                       # What read queue length does an incoming req see
system.mem_ctrls0.rdQLenPdf::20                  2417                       # What read queue length does an incoming req see
system.mem_ctrls0.rdQLenPdf::21                  2394                       # What read queue length does an incoming req see
system.mem_ctrls0.rdQLenPdf::22                  2229                       # What read queue length does an incoming req see
system.mem_ctrls0.rdQLenPdf::23                  2280                       # What read queue length does an incoming req see
system.mem_ctrls0.rdQLenPdf::24                  2255                       # What read queue length does an incoming req see
system.mem_ctrls0.rdQLenPdf::25                  2229                       # What read queue length does an incoming req see
system.mem_ctrls0.rdQLenPdf::26                  2246                       # What read queue length does an incoming req see
system.mem_ctrls0.rdQLenPdf::27                  2251                       # What read queue length does an incoming req see
system.mem_ctrls0.rdQLenPdf::28                  2207                       # What read queue length does an incoming req see
system.mem_ctrls0.rdQLenPdf::29                  2212                       # What read queue length does an incoming req see
system.mem_ctrls0.rdQLenPdf::30                  2265                       # What read queue length does an incoming req see
system.mem_ctrls0.rdQLenPdf::31                 82202                       # What read queue length does an incoming req see
system.mem_ctrls0.wrQLenPdf::0                  37722                       # What write queue length does an incoming req see
system.mem_ctrls0.wrQLenPdf::1                  38783                       # What write queue length does an incoming req see
system.mem_ctrls0.wrQLenPdf::2                  39281                       # What write queue length does an incoming req see
system.mem_ctrls0.wrQLenPdf::3                  39463                       # What write queue length does an incoming req see
system.mem_ctrls0.wrQLenPdf::4                  39304                       # What write queue length does an incoming req see
system.mem_ctrls0.wrQLenPdf::5                   5452                       # What write queue length does an incoming req see
system.mem_ctrls0.wrQLenPdf::6                   5701                       # What write queue length does an incoming req see
system.mem_ctrls0.wrQLenPdf::7                   6263                       # What write queue length does an incoming req see
system.mem_ctrls0.bytesPerActivate::samples       165606                       # Bytes accessed per row activation
system.mem_ctrls0.bytesPerActivate::mean   212.023236                       # Bytes accessed per row activation
system.mem_ctrls0.bytesPerActivate::gmean   157.976045                       # Bytes accessed per row activation
system.mem_ctrls0.bytesPerActivate::stdev   169.935585                       # Bytes accessed per row activation
system.mem_ctrls0.bytesPerActivate::0-127        59290     35.80%     35.80% # Bytes accessed per row activation
system.mem_ctrls0.bytesPerActivate::128-255        36365     21.96%     57.76% # Bytes accessed per row activation
system.mem_ctrls0.bytesPerActivate::256-383        53881     32.54%     90.30% # Bytes accessed per row activation
system.mem_ctrls0.bytesPerActivate::384-511         6185      3.73%     94.03% # Bytes accessed per row activation
system.mem_ctrls0.bytesPerActivate::512-639         4709      2.84%     96.87% # Bytes accessed per row activation
system.mem_ctrls0.bytesPerActivate::640-767         1949      1.18%     98.05% # Bytes accessed per row activation
system.mem_ctrls0.bytesPerActivate::768-895         1096      0.66%     98.71% # Bytes accessed per row activation
system.mem_ctrls0.bytesPerActivate::896-1023          832      0.50%     99.22% # Bytes accessed per row activation
system.mem_ctrls0.bytesPerActivate::1024-1151         1299      0.78%    100.00% # Bytes accessed per row activation
system.mem_ctrls0.bytesPerActivate::total       165606                       # Bytes accessed per row activation
system.mem_ctrls0.rdPerTurnAround::samples        37970                       # Reads before turning the bus around for writes
system.mem_ctrls0.rdPerTurnAround::mean      8.867079                       # Reads before turning the bus around for writes
system.mem_ctrls0.rdPerTurnAround::stdev    23.791473                       # Reads before turning the bus around for writes
system.mem_ctrls0.rdPerTurnAround::0-127        37956     99.96%     99.96% # Reads before turning the bus around for writes
system.mem_ctrls0.rdPerTurnAround::128-255           13      0.03%    100.00% # Reads before turning the bus around for writes
system.mem_ctrls0.rdPerTurnAround::3968-4095            1      0.00%    100.00% # Reads before turning the bus around for writes
system.mem_ctrls0.rdPerTurnAround::total        37970                       # Reads before turning the bus around for writes
system.mem_ctrls0.wrPerTurnAround::samples        37970                       # Writes before turning the bus around for reads
system.mem_ctrls0.wrPerTurnAround::mean      5.582513                       # Writes before turning the bus around for reads
system.mem_ctrls0.wrPerTurnAround::gmean     5.400006                       # Writes before turning the bus around for reads
system.mem_ctrls0.wrPerTurnAround::stdev     1.863610                       # Writes before turning the bus around for reads
system.mem_ctrls0.wrPerTurnAround::4-7          34682     91.34%     91.34% # Writes before turning the bus around for reads
system.mem_ctrls0.wrPerTurnAround::8-11          2149      5.66%     97.00% # Writes before turning the bus around for reads
system.mem_ctrls0.wrPerTurnAround::12-15          746      1.96%     98.96% # Writes before turning the bus around for reads
system.mem_ctrls0.wrPerTurnAround::16-19          393      1.04%    100.00% # Writes before turning the bus around for reads
system.mem_ctrls0.wrPerTurnAround::total        37970                       # Writes before turning the bus around for reads
system.mem_ctrls0.totQLat                 31875039348                       # Total ticks spent queuing
system.mem_ctrls0.totMemAccLat            38187883098                       # Total ticks spent from burst creation until serviced by the DRAM
system.mem_ctrls0.totBusLat                1683425000                       # Total ticks spent in databus transfers
system.mem_ctrls0.avgQLat                    94673.18                       # Average queueing delay per DRAM burst
system.mem_ctrls0.avgBusLat                   5000.00                       # Average bus latency per DRAM burst
system.mem_ctrls0.avgMemAccLat              113423.18                       # Average memory access latency per DRAM burst
system.mem_ctrls0.avgRdBW                      164.79                       # Average DRAM read bandwidth in MiByte/s
system.mem_ctrls0.avgWrBW                      103.75                       # Average achieved write bandwidth in MiByte/s
system.mem_ctrls0.avgRdBWSys                   164.80                       # Average system read bandwidth in MiByte/s
system.mem_ctrls0.avgWrBWSys                   103.75                       # Average system write bandwidth in MiByte/s
system.mem_ctrls0.peakBW                     12800.00                       # Theoretical peak bandwidth in MiByte/s
system.mem_ctrls0.busUtil                        2.10                       # Data bus utilization in percentage
system.mem_ctrls0.busUtilRead                    1.29                       # Data bus utilization in percentage for reads
system.mem_ctrls0.busUtilWrite                   0.81                       # Data bus utilization in percentage for writes
system.mem_ctrls0.avgRdQLen                      1.26                       # Average read queue length when enqueuing
system.mem_ctrls0.avgWrQLen                      2.96                       # Average write queue length when enqueuing
system.mem_ctrls0.readRowHits                  248242                       # Number of row buffer hits during reads
system.mem_ctrls0.writeRowHits                 134793                       # Number of row buffer hits during writes
system.mem_ctrls0.readRowHitRate                73.73                       # Row buffer hit rate for reads
system.mem_ctrls0.writeRowHitRate               63.59                       # Row buffer hit rate for writes
system.mem_ctrls0.avgGap                    238321.00                       # Average gap between requests
system.mem_ctrls0.pageHitRate                   69.81                       # Row buffer hit rate, read and write combined
system.mem_ctrls0.memoryStateTime::IDLE   28041392250                       # Time in different power states
system.mem_ctrls0.memoryStateTime::REF     4366180000                       # Time in different power states
system.mem_ctrls0.memoryStateTime::PRE_PDN            0                       # Time in different power states
system.mem_ctrls0.memoryStateTime::ACT    98347203500                       # Time in different power states
system.mem_ctrls0.memoryStateTime::ACT_PDN            0                       # Time in different power states
system.mem_ctrls0.actEnergy::0              632265480                       # Energy for activate commands per rank (pJ)
system.mem_ctrls0.actEnergy::1              619602480                       # Energy for activate commands per rank (pJ)
system.mem_ctrls0.preEnergy::0              344986125                       # Energy for precharge commands per rank (pJ)
system.mem_ctrls0.preEnergy::1              338076750                       # Energy for precharge commands per rank (pJ)
system.mem_ctrls0.readEnergy::0            1320922200                       # Energy for read commands per rank (pJ)
system.mem_ctrls0.readEnergy::1            1304659200                       # Energy for read commands per rank (pJ)
system.mem_ctrls0.writeEnergy::0            689452560                       # Energy for write commands per rank (pJ)
system.mem_ctrls0.writeEnergy::1            683957520                       # Energy for write commands per rank (pJ)
system.mem_ctrls0.refreshEnergy::0         8540248080                       # Energy for refresh commands per rank (pJ)
system.mem_ctrls0.refreshEnergy::1         8540248080                       # Energy for refresh commands per rank (pJ)
system.mem_ctrls0.actBackEnergy::0        49741325595                       # Energy for active background per rank (pJ)
system.mem_ctrls0.actBackEnergy::1        49309076070                       # Energy for active background per rank (pJ)
system.mem_ctrls0.preBackEnergy::0        34820115750                       # Energy for precharge background per rank (pJ)
system.mem_ctrls0.preBackEnergy::1        35199282000                       # Energy for precharge background per rank (pJ)
system.mem_ctrls0.totalEnergy::0          96089315790                       # Total energy per rank (pJ)
system.mem_ctrls0.totalEnergy::1          95994902100                       # Total energy per rank (pJ)
system.mem_ctrls0.averagePower::0          734.881957                       # Core power per rank (mW)
system.mem_ctrls0.averagePower::1          734.159890                       # Core power per rank (mW)
system.mem_ctrls1.bytes_read::ruby.dir_cntrl1     20828160                       # Number of bytes read from this memory
system.mem_ctrls1.bytes_read::total          20828160                       # Number of bytes read from this memory
system.mem_ctrls1.bytes_written::ruby.dir_cntrl1     12920000                       # Number of bytes written to this memory
system.mem_ctrls1.bytes_written::total       12920000                       # Number of bytes written to this memory
system.mem_ctrls1.num_reads::ruby.dir_cntrl1       325440                       # Number of read requests responded to by this memory
system.mem_ctrls1.num_reads::total             325440                       # Number of read requests responded to by this memory
system.mem_ctrls1.num_writes::ruby.dir_cntrl1       201875                       # Number of write requests responded to by this memory
system.mem_ctrls1.num_writes::total            201875                       # Number of write requests responded to by this memory
system.mem_ctrls1.bw_read::ruby.dir_cntrl1    159284962                       # Total read bandwidth from this memory (bytes/s)
system.mem_ctrls1.bw_read::total            159284962                       # Total read bandwidth from this memory (bytes/s)
system.mem_ctrls1.bw_write::ruby.dir_cntrl1     98806698                       # Write bandwidth from this memory (bytes/s)
system.mem_ctrls1.bw_write::total            98806698                       # Write bandwidth from this memory (bytes/s)
system.mem_ctrls1.bw_total::ruby.dir_cntrl1    258091660                       # Total bandwidth to/from this memory (bytes/s)
system.mem_ctrls1.bw_total::total           258091660                       # Total bandwidth to/from this memory (bytes/s)
system.mem_ctrls1.readReqs                     325440                       # Number of read requests accepted
system.mem_ctrls1.writeReqs                    201875                       # Number of write requests accepted
system.mem_ctrls1.readBursts                   325440                       # Number of DRAM read bursts, including those serviced by the write queue
system.mem_ctrls1.writeBursts                  201875                       # Number of DRAM write bursts, including those merged in the write queue
system.mem_ctrls1.bytesReadDRAM              20827200                       # Total number of bytes read from DRAM
system.mem_ctrls1.bytesReadWrQ                    960                       # Total number of bytes read from write queue
system.mem_ctrls1.bytesWritten               12919744                       # Total number of bytes written to DRAM
system.mem_ctrls1.bytesReadSys               20828160                       # Total read bytes from the system interface side
system.mem_ctrls1.bytesWrittenSys            12920000                       # Total written bytes from the system interface side
system.mem_ctrls1.servicedByWrQ                    15                       # Number of DRAM read bursts serviced by the write queue
system.mem_ctrls1.mergedWrBursts                    0                       # Number of DRAM write bursts merged with an existing one
system.mem_ctrls1.neitherReadNorWriteReqs            0                       # Number of requests that are neither read nor write
system.mem_ctrls1.perBankRdBursts::0            20059                       # Per bank write bursts
system.mem_ctrls1.perBankRdBursts::1            20698                       # Per bank write bursts
system.mem_ctrls1.perBankRdBursts::2            20233                       # Per bank write bursts
system.mem_ctrls1.perBankRdBursts::3            20751                       # Per bank write bursts
system.mem_ctrls1.perBankRdBursts::4            20430                       # Per bank write bursts
system.mem_ctrls1.perBankRdBursts::5            20607                       # Per bank write bursts
system.mem_ctrls1.perBankRdBursts::6            20521                       # Per bank write bursts
system.mem_ctrls1.perBankRdBursts::7            20603                       # Per bank write bursts
system.mem_ctrls1.perBankRdBursts::8            20190                       # Per bank write bursts
system.mem_ctrls1.perBankRdBursts::9            20382                       # Per bank write bursts
system.mem_ctrls1.perBankRdBursts::10           20153                       # Per bank write bursts
system.mem_ctrls1.perBankRdBursts::11           20570                       # Per bank write bursts
system.mem_ctrls1.perBankRdBursts::12           20047                       # Per bank write bursts
system.mem_ctrls1.perBankRdBursts::13           19917                       # Per bank write bursts
system.mem_ctrls1.perBankRdBursts::14           20131                       # Per bank write bursts
system.mem_ctrls1.perBankRdBursts::15           20133                       # Per bank write bursts
system.mem_ctrls1.perBankWrBursts::0            12659                       # Per bank write bursts
system.mem_ctrls1.perBankWrBursts::1            12635                       # Per bank write bursts
system.mem_ctrls1.perBankWrBursts::2            12548                       # Per bank write bursts
system.mem_ctrls1.perBankWrBursts::3            12763                       # Per bank write bursts
system.mem_ctrls1.perBankWrBursts::4            12596                       # Per bank write bursts
system.mem_ctrls1.perBankWrBursts::5            12743                       # Per bank write bursts
system.mem_ctrls1.perBankWrBursts::6            12625                       # Per bank write bursts
system.mem_ctrls1.perBankWrBursts::7            12819                       # Per bank write bursts
system.mem_ctrls1.perBankWrBursts::8            12532                       # Per bank write bursts
system.mem_ctrls1.perBankWrBursts::9            12745                       # Per bank write bursts
system.mem_ctrls1.perBankWrBursts::10           12565                       # Per bank write bursts
system.mem_ctrls1.perBankWrBursts::11           12491                       # Per bank write bursts
system.mem_ctrls1.perBankWrBursts::12           12485                       # Per bank write bursts
system.mem_ctrls1.perBankWrBursts::13           12462                       # Per bank write bursts
system.mem_ctrls1.perBankWrBursts::14           12683                       # Per bank write bursts
system.mem_ctrls1.perBankWrBursts::15           12520                       # Per bank write bursts
system.mem_ctrls1.numRdRetry                    61171                       # Number of times read queue was full causing retry
system.mem_ctrls1.numWrRetry                     3037                       # Number of times write queue was full causing retry
system.mem_ctrls1.totGap                 130759542500                       # Total gap between requests
system.mem_ctrls1.readPktSize::0                    0                       # Read request sizes (log2)
system.mem_ctrls1.readPktSize::1                    0                       # Read request sizes (log2)
system.mem_ctrls1.readPktSize::2                    0                       # Read request sizes (log2)
system.mem_ctrls1.readPktSize::3                    0                       # Read request sizes (log2)
system.mem_ctrls1.readPktSize::4                    0                       # Read request sizes (log2)
system.mem_ctrls1.readPktSize::5                    0                       # Read request sizes (log2)
system.mem_ctrls1.readPktSize::6               325440                       # Read request sizes (log2)
system.mem_ctrls1.writePktSize::0                   0                       # Write request sizes (log2)
system.mem_ctrls1.writePktSize::1                   0                       # Write request sizes (log2)
system.mem_ctrls1.writePktSize::2                   0                       # Write request sizes (log2)
system.mem_ctrls1.writePktSize::3                   0                       # Write request sizes (log2)
system.mem_ctrls1.writePktSize::4                   0                       # Write request sizes (log2)
system.mem_ctrls1.writePktSize::5                   0                       # Write request sizes (log2)
system.mem_ctrls1.writePktSize::6              201875                       # Write request sizes (log2)
system.mem_ctrls1.rdQLenPdf::0                 171394                       # What read queue length does an incoming req see
system.mem_ctrls1.rdQLenPdf::1                   2253                       # What read queue length does an incoming req see
system.mem_ctrls1.rdQLenPdf::2                   2044                       # What read queue length does an incoming req see
system.mem_ctrls1.rdQLenPdf::3                   2361                       # What read queue length does an incoming req see
system.mem_ctrls1.rdQLenPdf::4                   2794                       # What read queue length does an incoming req see
system.mem_ctrls1.rdQLenPdf::5                   3158                       # What read queue length does an incoming req see
system.mem_ctrls1.rdQLenPdf::6                   3411                       # What read queue length does an incoming req see
system.mem_ctrls1.rdQLenPdf::7                   3652                       # What read queue length does an incoming req see
system.mem_ctrls1.rdQLenPdf::8                   3811                       # What read queue length does an incoming req see
system.mem_ctrls1.rdQLenPdf::9                   3823                       # What read queue length does an incoming req see
system.mem_ctrls1.rdQLenPdf::10                  3785                       # What read queue length does an incoming req see
system.mem_ctrls1.rdQLenPdf::11                  3687                       # What read queue length does an incoming req see
system.mem_ctrls1.rdQLenPdf::12                  3716                       # What read queue length does an incoming req see
system.mem_ctrls1.rdQLenPdf::13                  3776                       # What read queue length does an incoming req see
system.mem_ctrls1.rdQLenPdf::14                  3623                       # What read queue length does an incoming req see
system.mem_ctrls1.rdQLenPdf::15                  3433                       # What read queue length does an incoming req see
system.mem_ctrls1.rdQLenPdf::16                  3247                       # What read queue length does an incoming req see
system.mem_ctrls1.rdQLenPdf::17                  3089                       # What read queue length does an incoming req see
system.mem_ctrls1.rdQLenPdf::18                  3046                       # What read queue length does an incoming req see
system.mem_ctrls1.rdQLenPdf::19                  2875                       # What read queue length does an incoming req see
system.mem_ctrls1.rdQLenPdf::20                  2932                       # What read queue length does an incoming req see
system.mem_ctrls1.rdQLenPdf::21                  2894                       # What read queue length does an incoming req see
system.mem_ctrls1.rdQLenPdf::22                  2708                       # What read queue length does an incoming req see
system.mem_ctrls1.rdQLenPdf::23                  2744                       # What read queue length does an incoming req see
system.mem_ctrls1.rdQLenPdf::24                  2734                       # What read queue length does an incoming req see
system.mem_ctrls1.rdQLenPdf::25                  2497                       # What read queue length does an incoming req see
system.mem_ctrls1.rdQLenPdf::26                  2470                       # What read queue length does an incoming req see
system.mem_ctrls1.rdQLenPdf::27                  2405                       # What read queue length does an incoming req see
system.mem_ctrls1.rdQLenPdf::28                  2354                       # What read queue length does an incoming req see
system.mem_ctrls1.rdQLenPdf::29                  2405                       # What read queue length does an incoming req see
system.mem_ctrls1.rdQLenPdf::30                  2451                       # What read queue length does an incoming req see
system.mem_ctrls1.rdQLenPdf::31                 63853                       # What read queue length does an incoming req see
system.mem_ctrls1.wrQLenPdf::0                  35934                       # What write queue length does an incoming req see
system.mem_ctrls1.wrQLenPdf::1                  36853                       # What write queue length does an incoming req see
system.mem_ctrls1.wrQLenPdf::2                  37165                       # What write queue length does an incoming req see
system.mem_ctrls1.wrQLenPdf::3                  37309                       # What write queue length does an incoming req see
system.mem_ctrls1.wrQLenPdf::4                  37528                       # What write queue length does an incoming req see
system.mem_ctrls1.wrQLenPdf::5                   5108                       # What write queue length does an incoming req see
system.mem_ctrls1.wrQLenPdf::6                   5552                       # What write queue length does an incoming req see
system.mem_ctrls1.wrQLenPdf::7                   6426                       # What write queue length does an incoming req see
system.mem_ctrls1.bytesPerActivate::samples       138577                       # Bytes accessed per row activation
system.mem_ctrls1.bytesPerActivate::mean   243.513310                       # Bytes accessed per row activation
system.mem_ctrls1.bytesPerActivate::gmean   190.675344                       # Bytes accessed per row activation
system.mem_ctrls1.bytesPerActivate::stdev   174.050392                       # Bytes accessed per row activation
system.mem_ctrls1.bytesPerActivate::0-127        30462     21.98%     21.98% # Bytes accessed per row activation
system.mem_ctrls1.bytesPerActivate::128-255        37198     26.84%     48.82% # Bytes accessed per row activation
system.mem_ctrls1.bytesPerActivate::256-383        53831     38.85%     87.67% # Bytes accessed per row activation
system.mem_ctrls1.bytesPerActivate::384-511         5917      4.27%     91.94% # Bytes accessed per row activation
system.mem_ctrls1.bytesPerActivate::512-639         5401      3.90%     95.84% # Bytes accessed per row activation
system.mem_ctrls1.bytesPerActivate::640-767         2155      1.56%     97.39% # Bytes accessed per row activation
system.mem_ctrls1.bytesPerActivate::768-895         1198      0.86%     98.26% # Bytes accessed per row activation
system.mem_ctrls1.bytesPerActivate::896-1023          904      0.65%     98.91% # Bytes accessed per row activation
system.mem_ctrls1.bytesPerActivate::1024-1151         1511      1.09%    100.00% # Bytes accessed per row activation
system.mem_ctrls1.bytesPerActivate::total       138577                       # Bytes accessed per row activation
system.mem_ctrls1.rdPerTurnAround::samples        36194                       # Reads before turning the bus around for writes
system.mem_ctrls1.rdPerTurnAround::mean      8.990579                       # Reads before turning the bus around for writes
system.mem_ctrls1.rdPerTurnAround::stdev    20.678253                       # Reads before turning the bus around for writes
system.mem_ctrls1.rdPerTurnAround::0-127        36176     99.95%     99.95% # Reads before turning the bus around for writes
system.mem_ctrls1.rdPerTurnAround::128-255           16      0.04%     99.99% # Reads before turning the bus around for writes
system.mem_ctrls1.rdPerTurnAround::1152-1279            1      0.00%    100.00% # Reads before turning the bus around for writes
system.mem_ctrls1.rdPerTurnAround::2816-2943            1      0.00%    100.00% # Reads before turning the bus around for writes
system.mem_ctrls1.rdPerTurnAround::total        36194                       # Reads before turning the bus around for writes
system.mem_ctrls1.wrPerTurnAround::samples        36194                       # Writes before turning the bus around for reads
system.mem_ctrls1.wrPerTurnAround::mean      5.577471                       # Writes before turning the bus around for reads
system.mem_ctrls1.wrPerTurnAround::gmean     5.386535                       # Writes before turning the bus around for reads
system.mem_ctrls1.wrPerTurnAround::stdev     1.921003                       # Writes before turning the bus around for reads
system.mem_ctrls1.wrPerTurnAround::4-7          33023     91.24%     91.24% # Writes before turning the bus around for reads
system.mem_ctrls1.wrPerTurnAround::8-11          1995      5.51%     96.75% # Writes before turning the bus around for reads
system.mem_ctrls1.wrPerTurnAround::12-15          746      2.06%     98.81% # Writes before turning the bus around for reads
system.mem_ctrls1.wrPerTurnAround::16-19          430      1.19%    100.00% # Writes before turning the bus around for reads
system.mem_ctrls1.wrPerTurnAround::total        36194                       # Writes before turning the bus around for reads
system.mem_ctrls1.totQLat                 28203186498                       # Total ticks spent queuing
system.mem_ctrls1.totMemAccLat            34304905248                       # Total ticks spent from burst creation until serviced by the DRAM
system.mem_ctrls1.totBusLat                1627125000                       # Total ticks spent in databus transfers
system.mem_ctrls1.avgQLat                    86665.70                       # Average queueing delay per DRAM burst
system.mem_ctrls1.avgBusLat                   5000.00                       # Average bus latency per DRAM burst
system.mem_ctrls1.avgMemAccLat              105415.70                       # Average memory access latency per DRAM burst
system.mem_ctrls1.avgRdBW                      159.28                       # Average DRAM read bandwidth in MiByte/s
system.mem_ctrls1.avgWrBW                       98.80                       # Average achieved write bandwidth in MiByte/s
system.mem_ctrls1.avgRdBWSys                   159.28                       # Average system read bandwidth in MiByte/s
system.mem_ctrls1.avgWrBWSys                    98.81                       # Average system write bandwidth in MiByte/s
system.mem_ctrls1.peakBW                     12800.00                       # Theoretical peak bandwidth in MiByte/s
system.mem_ctrls1.busUtil                        2.02                       # Data bus utilization in percentage
system.mem_ctrls1.busUtilRead                    1.24                       # Data bus utilization in percentage for reads
system.mem_ctrls1.busUtilWrite                   0.77                       # Data bus utilization in percentage for writes
system.mem_ctrls1.avgRdQLen                      1.23                       # Average read queue length when enqueuing
system.mem_ctrls1.avgWrQLen                      2.98                       # Average write queue length when enqueuing
system.mem_ctrls1.readRowHits                  248499                       # Number of row buffer hits during reads
system.mem_ctrls1.writeRowHits                 140212                       # Number of row buffer hits during writes
system.mem_ctrls1.readRowHitRate                76.36                       # Row buffer hit rate for reads
system.mem_ctrls1.writeRowHitRate               69.45                       # Row buffer hit rate for writes
system.mem_ctrls1.avgGap                    247972.36                       # Average gap between requests
system.mem_ctrls1.pageHitRate                   73.72                       # Row buffer hit rate, read and write combined
system.mem_ctrls1.memoryStateTime::IDLE   28549341000                       # Time in different power states
system.mem_ctrls1.memoryStateTime::REF     4366180000                       # Time in different power states
system.mem_ctrls1.memoryStateTime::PRE_PDN            0                       # Time in different power states
system.mem_ctrls1.memoryStateTime::ACT    97839250750                       # Time in different power states
system.mem_ctrls1.memoryStateTime::ACT_PDN            0                       # Time in different power states
system.mem_ctrls1.actEnergy::0              531044640                       # Energy for activate commands per rank (pJ)
system.mem_ctrls1.actEnergy::1              516514320                       # Energy for activate commands per rank (pJ)
system.mem_ctrls1.preEnergy::0              289756500                       # Energy for precharge commands per rank (pJ)
system.mem_ctrls1.preEnergy::1              281828250                       # Energy for precharge commands per rank (pJ)
system.mem_ctrls1.readEnergy::0            1278022200                       # Energy for read commands per rank (pJ)
system.mem_ctrls1.readEnergy::1            1259762400                       # Energy for read commands per rank (pJ)
system.mem_ctrls1.writeEnergy::0            656981280                       # Energy for write commands per rank (pJ)
system.mem_ctrls1.writeEnergy::1            650974320                       # Energy for write commands per rank (pJ)
system.mem_ctrls1.refreshEnergy::0         8540248080                       # Energy for refresh commands per rank (pJ)
system.mem_ctrls1.refreshEnergy::1         8540248080                       # Energy for refresh commands per rank (pJ)
system.mem_ctrls1.actBackEnergy::0        49179865050                       # Energy for active background per rank (pJ)
system.mem_ctrls1.actBackEnergy::1        48239565975                       # Energy for active background per rank (pJ)
system.mem_ctrls1.preBackEnergy::0        35312622750                       # Energy for precharge background per rank (pJ)
system.mem_ctrls1.preBackEnergy::1        36137446500                       # Energy for precharge background per rank (pJ)
system.mem_ctrls1.totalEnergy::0          95788540500                       # Total energy per rank (pJ)
system.mem_ctrls1.totalEnergy::1          95626339845                       # Total energy per rank (pJ)
system.mem_ctrls1.averagePower::0          732.581677                       # Core power per rank (mW)
system.mem_ctrls1.averagePower::1          731.341182                       # Core power per rank (mW)
system.mem_ctrls2.bytes_read::ruby.dir_cntrl2     20827392                       # Number of bytes read from this memory
system.mem_ctrls2.bytes_read::total          20827392                       # Number of bytes read from this memory
system.mem_ctrls2.bytes_written::ruby.dir_cntrl2     12920512                       # Number of bytes written to this memory
system.mem_ctrls2.bytes_written::total       12920512                       # Number of bytes written to this memory
system.mem_ctrls2.num_reads::ruby.dir_cntrl2       325428                       # Number of read requests responded to by this memory
system.mem_ctrls2.num_reads::total             325428                       # Number of read requests responded to by this memory
system.mem_ctrls2.num_writes::ruby.dir_cntrl2       201883                       # Number of write requests responded to by this memory
system.mem_ctrls2.num_writes::total            201883                       # Number of write requests responded to by this memory
system.mem_ctrls2.bw_read::ruby.dir_cntrl2    159279089                       # Total read bandwidth from this memory (bytes/s)
system.mem_ctrls2.bw_read::total            159279089                       # Total read bandwidth from this memory (bytes/s)
system.mem_ctrls2.bw_write::ruby.dir_cntrl2     98810613                       # Write bandwidth from this memory (bytes/s)
system.mem_ctrls2.bw_write::total            98810613                       # Write bandwidth from this memory (bytes/s)
system.mem_ctrls2.bw_total::ruby.dir_cntrl2    258089702                       # Total bandwidth to/from this memory (bytes/s)
system.mem_ctrls2.bw_total::total           258089702                       # Total bandwidth to/from this memory (bytes/s)
system.mem_ctrls2.readReqs                     325428                       # Number of read requests accepted
system.mem_ctrls2.writeReqs                    201883                       # Number of write requests accepted
system.mem_ctrls2.readBursts                   325428                       # Number of DRAM read bursts, including those serviced by the write queue
system.mem_ctrls2.writeBursts                  201883                       # Number of DRAM write bursts, including those merged in the write queue
system.mem_ctrls2.bytesReadDRAM              20826432                       # Total number of bytes read from DRAM
system.mem_ctrls2.bytesReadWrQ                    960                       # Total number of bytes read from write queue
system.mem_ctrls2.bytesWritten               12920448                       # Total number of bytes written to DRAM
system.mem_ctrls2.bytesReadSys               20827392                       # Total read bytes from the system interface side
system.mem_ctrls2.bytesWrittenSys            12920512                       # Total written bytes from the system interface side
system.mem_ctrls2.servicedByWrQ                    15                       # Number of DRAM read bursts serviced by the write queue
system.mem_ctrls2.mergedWrBursts                    0                       # Number of DRAM write bursts merged with an existing one
system.mem_ctrls2.neitherReadNorWriteReqs            0                       # Number of requests that are neither read nor write
system.mem_ctrls2.perBankRdBursts::0            20056                       # Per bank write bursts
system.mem_ctrls2.perBankRdBursts::1            20678                       # Per bank write bursts
system.mem_ctrls2.perBankRdBursts::2            20244                       # Per bank write bursts
system.mem_ctrls2.perBankRdBursts::3            20791                       # Per bank write bursts
system.mem_ctrls2.perBankRdBursts::4            20435                       # Per bank write bursts
system.mem_ctrls2.perBankRdBursts::5            20597                       # Per bank write bursts
system.mem_ctrls2.perBankRdBursts::6            20508                       # Per bank write bursts
system.mem_ctrls2.perBankRdBursts::7            20576                       # Per bank write bursts
system.mem_ctrls2.perBankRdBursts::8            20154                       # Per bank write bursts
system.mem_ctrls2.perBankRdBursts::9            20392                       # Per bank write bursts
system.mem_ctrls2.perBankRdBursts::10           20160                       # Per bank write bursts
system.mem_ctrls2.perBankRdBursts::11           20587                       # Per bank write bursts
system.mem_ctrls2.perBankRdBursts::12           20065                       # Per bank write bursts
system.mem_ctrls2.perBankRdBursts::13           19876                       # Per bank write bursts
system.mem_ctrls2.perBankRdBursts::14           20125                       # Per bank write bursts
system.mem_ctrls2.perBankRdBursts::15           20169                       # Per bank write bursts
system.mem_ctrls2.perBankWrBursts::0            12655                       # Per bank write bursts
system.mem_ctrls2.perBankWrBursts::1            12634                       # Per bank write bursts
system.mem_ctrls2.perBankWrBursts::2            12544                       # Per bank write bursts
system.mem_ctrls2.perBankWrBursts::3            12771                       # Per bank write bursts
system.mem_ctrls2.perBankWrBursts::4            12597                       # Per bank write bursts
system.mem_ctrls2.perBankWrBursts::5            12728                       # Per bank write bursts
system.mem_ctrls2.perBankWrBursts::6            12633                       # Per bank write bursts
system.mem_ctrls2.perBankWrBursts::7            12815                       # Per bank write bursts
system.mem_ctrls2.perBankWrBursts::8            12516                       # Per bank write bursts
system.mem_ctrls2.perBankWrBursts::9            12751                       # Per bank write bursts
system.mem_ctrls2.perBankWrBursts::10           12562                       # Per bank write bursts
system.mem_ctrls2.perBankWrBursts::11           12505                       # Per bank write bursts
system.mem_ctrls2.perBankWrBursts::12           12493                       # Per bank write bursts
system.mem_ctrls2.perBankWrBursts::13           12455                       # Per bank write bursts
system.mem_ctrls2.perBankWrBursts::14           12690                       # Per bank write bursts
system.mem_ctrls2.perBankWrBursts::15           12533                       # Per bank write bursts
system.mem_ctrls2.numRdRetry                    59858                       # Number of times read queue was full causing retry
system.mem_ctrls2.numWrRetry                     3118                       # Number of times write queue was full causing retry
system.mem_ctrls2.totGap                 130760276500                       # Total gap between requests
system.mem_ctrls2.readPktSize::0                    0                       # Read request sizes (log2)
system.mem_ctrls2.readPktSize::1                    0                       # Read request sizes (log2)
system.mem_ctrls2.readPktSize::2                    0                       # Read request sizes (log2)
system.mem_ctrls2.readPktSize::3                    0                       # Read request sizes (log2)
system.mem_ctrls2.readPktSize::4                    0                       # Read request sizes (log2)
system.mem_ctrls2.readPktSize::5                    0                       # Read request sizes (log2)
system.mem_ctrls2.readPktSize::6               325428                       # Read request sizes (log2)
system.mem_ctrls2.writePktSize::0                   0                       # Write request sizes (log2)
system.mem_ctrls2.writePktSize::1                   0                       # Write request sizes (log2)
system.mem_ctrls2.writePktSize::2                   0                       # Write request sizes (log2)
system.mem_ctrls2.writePktSize::3                   0                       # Write request sizes (log2)
system.mem_ctrls2.writePktSize::4                   0                       # Write request sizes (log2)
system.mem_ctrls2.writePktSize::5                   0                       # Write request sizes (log2)
system.mem_ctrls2.writePktSize::6              201883                       # Write request sizes (log2)
system.mem_ctrls2.rdQLenPdf::0                 171577                       # What read queue length does an incoming req see
system.mem_ctrls2.rdQLenPdf::1                   2115                       # What read queue length does an incoming req see
system.mem_ctrls2.rdQLenPdf::2                   2079                       # What read queue length does an incoming req see
system.mem_ctrls2.rdQLenPdf::3                   2345                       # What read queue length does an incoming req see
system.mem_ctrls2.rdQLenPdf::4                   2796                       # What read queue length does an incoming req see
system.mem_ctrls2.rdQLenPdf::5                   3164                       # What read queue length does an incoming req see
system.mem_ctrls2.rdQLenPdf::6                   3394                       # What read queue length does an incoming req see
system.mem_ctrls2.rdQLenPdf::7                   3515                       # What read queue length does an incoming req see
system.mem_ctrls2.rdQLenPdf::8                   3757                       # What read queue length does an incoming req see
system.mem_ctrls2.rdQLenPdf::9                   3813                       # What read queue length does an incoming req see
system.mem_ctrls2.rdQLenPdf::10                  3941                       # What read queue length does an incoming req see
system.mem_ctrls2.rdQLenPdf::11                  3800                       # What read queue length does an incoming req see
system.mem_ctrls2.rdQLenPdf::12                  3724                       # What read queue length does an incoming req see
system.mem_ctrls2.rdQLenPdf::13                  3590                       # What read queue length does an incoming req see
system.mem_ctrls2.rdQLenPdf::14                  3541                       # What read queue length does an incoming req see
system.mem_ctrls2.rdQLenPdf::15                  3406                       # What read queue length does an incoming req see
system.mem_ctrls2.rdQLenPdf::16                  3331                       # What read queue length does an incoming req see
system.mem_ctrls2.rdQLenPdf::17                  3263                       # What read queue length does an incoming req see
system.mem_ctrls2.rdQLenPdf::18                  3239                       # What read queue length does an incoming req see
system.mem_ctrls2.rdQLenPdf::19                  3117                       # What read queue length does an incoming req see
system.mem_ctrls2.rdQLenPdf::20                  2916                       # What read queue length does an incoming req see
system.mem_ctrls2.rdQLenPdf::21                  2886                       # What read queue length does an incoming req see
system.mem_ctrls2.rdQLenPdf::22                  2811                       # What read queue length does an incoming req see
system.mem_ctrls2.rdQLenPdf::23                  2759                       # What read queue length does an incoming req see
system.mem_ctrls2.rdQLenPdf::24                  2601                       # What read queue length does an incoming req see
system.mem_ctrls2.rdQLenPdf::25                  2660                       # What read queue length does an incoming req see
system.mem_ctrls2.rdQLenPdf::26                  2567                       # What read queue length does an incoming req see
system.mem_ctrls2.rdQLenPdf::27                  2521                       # What read queue length does an incoming req see
system.mem_ctrls2.rdQLenPdf::28                  2427                       # What read queue length does an incoming req see
system.mem_ctrls2.rdQLenPdf::29                  2423                       # What read queue length does an incoming req see
system.mem_ctrls2.rdQLenPdf::30                  2566                       # What read queue length does an incoming req see
system.mem_ctrls2.rdQLenPdf::31                 62769                       # What read queue length does an incoming req see
system.mem_ctrls2.wrQLenPdf::0                  35898                       # What write queue length does an incoming req see
system.mem_ctrls2.wrQLenPdf::1                  36794                       # What write queue length does an incoming req see
system.mem_ctrls2.wrQLenPdf::2                  37150                       # What write queue length does an incoming req see
system.mem_ctrls2.wrQLenPdf::3                  37355                       # What write queue length does an incoming req see
system.mem_ctrls2.wrQLenPdf::4                  37496                       # What write queue length does an incoming req see
system.mem_ctrls2.wrQLenPdf::5                   5155                       # What write queue length does an incoming req see
system.mem_ctrls2.wrQLenPdf::6                   5495                       # What write queue length does an incoming req see
system.mem_ctrls2.wrQLenPdf::7                   6540                       # What write queue length does an incoming req see
system.mem_ctrls2.bytesPerActivate::samples       138101                       # Bytes accessed per row activation
system.mem_ctrls2.bytesPerActivate::mean   244.353104                       # Bytes accessed per row activation
system.mem_ctrls2.bytesPerActivate::gmean   191.415516                       # Bytes accessed per row activation
system.mem_ctrls2.bytesPerActivate::stdev   173.832038                       # Bytes accessed per row activation
system.mem_ctrls2.bytesPerActivate::0-127        30486     22.08%     22.08% # Bytes accessed per row activation
system.mem_ctrls2.bytesPerActivate::128-255        35942     26.03%     48.10% # Bytes accessed per row activation
system.mem_ctrls2.bytesPerActivate::256-383        54543     39.50%     87.60% # Bytes accessed per row activation
system.mem_ctrls2.bytesPerActivate::384-511         5892      4.27%     91.86% # Bytes accessed per row activation
system.mem_ctrls2.bytesPerActivate::512-639         5612      4.06%     95.93% # Bytes accessed per row activation
system.mem_ctrls2.bytesPerActivate::640-767         2092      1.51%     97.44% # Bytes accessed per row activation
system.mem_ctrls2.bytesPerActivate::768-895         1131      0.82%     98.26% # Bytes accessed per row activation
system.mem_ctrls2.bytesPerActivate::896-1023          838      0.61%     98.87% # Bytes accessed per row activation
system.mem_ctrls2.bytesPerActivate::1024-1151         1565      1.13%    100.00% # Bytes accessed per row activation
system.mem_ctrls2.bytesPerActivate::total       138101                       # Bytes accessed per row activation
system.mem_ctrls2.rdPerTurnAround::samples        36188                       # Reads before turning the bus around for writes
system.mem_ctrls2.rdPerTurnAround::mean      8.992097                       # Reads before turning the bus around for writes
system.mem_ctrls2.rdPerTurnAround::stdev    20.746188                       # Reads before turning the bus around for writes
system.mem_ctrls2.rdPerTurnAround::0-127        36170     99.95%     99.95% # Reads before turning the bus around for writes
system.mem_ctrls2.rdPerTurnAround::128-255           16      0.04%     99.99% # Reads before turning the bus around for writes
system.mem_ctrls2.rdPerTurnAround::1152-1279            1      0.00%    100.00% # Reads before turning the bus around for writes
system.mem_ctrls2.rdPerTurnAround::2816-2943            1      0.00%    100.00% # Reads before turning the bus around for writes
system.mem_ctrls2.rdPerTurnAround::total        36188                       # Reads before turning the bus around for writes
system.mem_ctrls2.wrPerTurnAround::samples        36188                       # Writes before turning the bus around for reads
system.mem_ctrls2.wrPerTurnAround::mean      5.578700                       # Writes before turning the bus around for reads
system.mem_ctrls2.wrPerTurnAround::gmean     5.386882                       # Writes before turning the bus around for reads
system.mem_ctrls2.wrPerTurnAround::stdev     1.925426                       # Writes before turning the bus around for reads
system.mem_ctrls2.wrPerTurnAround::4-7          32981     91.14%     91.14% # Writes before turning the bus around for reads
system.mem_ctrls2.wrPerTurnAround::8-11          1994      5.51%     96.65% # Writes before turning the bus around for reads
system.mem_ctrls2.wrPerTurnAround::12-15          769      2.13%     98.77% # Writes before turning the bus around for reads
system.mem_ctrls2.wrPerTurnAround::16-19          444      1.23%    100.00% # Writes before turning the bus around for reads
system.mem_ctrls2.wrPerTurnAround::total        36188                       # Writes before turning the bus around for reads
system.mem_ctrls2.totQLat                 28100214991                       # Total ticks spent queuing
system.mem_ctrls2.totMemAccLat            34201708741                       # Total ticks spent from burst creation until serviced by the DRAM
system.mem_ctrls2.totBusLat                1627065000                       # Total ticks spent in databus transfers
system.mem_ctrls2.avgQLat                    86352.47                       # Average queueing delay per DRAM burst
system.mem_ctrls2.avgBusLat                   5000.00                       # Average bus latency per DRAM burst
system.mem_ctrls2.avgMemAccLat              105102.47                       # Average memory access latency per DRAM burst
system.mem_ctrls2.avgRdBW                      159.27                       # Average DRAM read bandwidth in MiByte/s
system.mem_ctrls2.avgWrBW                       98.81                       # Average achieved write bandwidth in MiByte/s
system.mem_ctrls2.avgRdBWSys                   159.28                       # Average system read bandwidth in MiByte/s
system.mem_ctrls2.avgWrBWSys                    98.81                       # Average system write bandwidth in MiByte/s
system.mem_ctrls2.peakBW                     12800.00                       # Theoretical peak bandwidth in MiByte/s
system.mem_ctrls2.busUtil                        2.02                       # Data bus utilization in percentage
system.mem_ctrls2.busUtilRead                    1.24                       # Data bus utilization in percentage for reads
system.mem_ctrls2.busUtilWrite                   0.77                       # Data bus utilization in percentage for writes
system.mem_ctrls2.avgRdQLen                      1.23                       # Average read queue length when enqueuing
system.mem_ctrls2.avgWrQLen                      2.95                       # Average write queue length when enqueuing
system.mem_ctrls2.readRowHits                  248661                       # Number of row buffer hits during reads
system.mem_ctrls2.writeRowHits                 140525                       # Number of row buffer hits during writes
system.mem_ctrls2.readRowHitRate                76.41                       # Row buffer hit rate for reads
system.mem_ctrls2.writeRowHitRate               69.61                       # Row buffer hit rate for writes
system.mem_ctrls2.avgGap                    247975.63                       # Average gap between requests
system.mem_ctrls2.pageHitRate                   73.81                       # Row buffer hit rate, read and write combined
system.mem_ctrls2.memoryStateTime::IDLE   28404044500                       # Time in different power states
system.mem_ctrls2.memoryStateTime::REF     4366180000                       # Time in different power states
system.mem_ctrls2.memoryStateTime::PRE_PDN            0                       # Time in different power states
system.mem_ctrls2.memoryStateTime::ACT    97984545500                       # Time in different power states
system.mem_ctrls2.memoryStateTime::ACT_PDN            0                       # Time in different power states
system.mem_ctrls2.actEnergy::0              529729200                       # Energy for activate commands per rank (pJ)
system.mem_ctrls2.actEnergy::1              514216080                       # Energy for activate commands per rank (pJ)
system.mem_ctrls2.preEnergy::0              289038750                       # Energy for precharge commands per rank (pJ)
system.mem_ctrls2.preEnergy::1              280574250                       # Energy for precharge commands per rank (pJ)
system.mem_ctrls2.readEnergy::0            1277881800                       # Energy for read commands per rank (pJ)
system.mem_ctrls2.readEnergy::1            1259793600                       # Energy for read commands per rank (pJ)
system.mem_ctrls2.writeEnergy::0            656903520                       # Energy for write commands per rank (pJ)
system.mem_ctrls2.writeEnergy::1            651129840                       # Energy for write commands per rank (pJ)
system.mem_ctrls2.refreshEnergy::0         8540248080                       # Energy for refresh commands per rank (pJ)
system.mem_ctrls2.refreshEnergy::1         8540248080                       # Energy for refresh commands per rank (pJ)
system.mem_ctrls2.actBackEnergy::0        48911692590                       # Energy for active background per rank (pJ)
system.mem_ctrls2.actBackEnergy::1        47984197140                       # Energy for active background per rank (pJ)
system.mem_ctrls2.preBackEnergy::0        35547860250                       # Energy for precharge background per rank (pJ)
system.mem_ctrls2.preBackEnergy::1        36361452750                       # Energy for precharge background per rank (pJ)
system.mem_ctrls2.totalEnergy::0          95753354190                       # Total energy per rank (pJ)
system.mem_ctrls2.totalEnergy::1          95591611740                       # Total energy per rank (pJ)
system.mem_ctrls2.averagePower::0          732.312590                       # Core power per rank (mW)
system.mem_ctrls2.averagePower::1          731.075599                       # Core power per rank (mW)
system.mem_ctrls3.bytes_read::ruby.dir_cntrl3     20806656                       # Number of bytes read from this memory
system.mem_ctrls3.bytes_read::total          20806656                       # Number of bytes read from this memory
system.mem_ctrls3.bytes_written::ruby.dir_cntrl3     12919296                       # Number of bytes written to this memory
system.mem_ctrls3.bytes_written::total       12919296                       # Number of bytes written to this memory
system.mem_ctrls3.num_reads::ruby.dir_cntrl3       325104                       # Number of read requests responded to by this memory
system.mem_ctrls3.num_reads::total             325104                       # Number of read requests responded to by this memory
system.mem_ctrls3.num_writes::ruby.dir_cntrl3       201864                       # Number of write requests responded to by this memory
system.mem_ctrls3.num_writes::total            201864                       # Number of write requests responded to by this memory
system.mem_ctrls3.bw_read::ruby.dir_cntrl3    159120508                       # Total read bandwidth from this memory (bytes/s)
system.mem_ctrls3.bw_read::total            159120508                       # Total read bandwidth from this memory (bytes/s)
system.mem_ctrls3.bw_write::ruby.dir_cntrl3     98801314                       # Write bandwidth from this memory (bytes/s)
system.mem_ctrls3.bw_write::total            98801314                       # Write bandwidth from this memory (bytes/s)
system.mem_ctrls3.bw_total::ruby.dir_cntrl3    257921822                       # Total bandwidth to/from this memory (bytes/s)
system.mem_ctrls3.bw_total::total           257921822                       # Total bandwidth to/from this memory (bytes/s)
system.mem_ctrls3.readReqs                     325104                       # Number of read requests accepted
system.mem_ctrls3.writeReqs                    201864                       # Number of write requests accepted
system.mem_ctrls3.readBursts                   325104                       # Number of DRAM read bursts, including those serviced by the write queue
system.mem_ctrls3.writeBursts                  201864                       # Number of DRAM write bursts, including those merged in the write queue
system.mem_ctrls3.bytesReadDRAM              20805824                       # Total number of bytes read from DRAM
system.mem_ctrls3.bytesReadWrQ                    832                       # Total number of bytes read from write queue
system.mem_ctrls3.bytesWritten               12919232                       # Total number of bytes written to DRAM
system.mem_ctrls3.bytesReadSys               20806656                       # Total read bytes from the system interface side
system.mem_ctrls3.bytesWrittenSys            12919296                       # Total written bytes from the system interface side
system.mem_ctrls3.servicedByWrQ                    13                       # Number of DRAM read bursts serviced by the write queue
system.mem_ctrls3.mergedWrBursts                    0                       # Number of DRAM write bursts merged with an existing one
system.mem_ctrls3.neitherReadNorWriteReqs            0                       # Number of requests that are neither read nor write
system.mem_ctrls3.perBankRdBursts::0            20050                       # Per bank write bursts
system.mem_ctrls3.perBankRdBursts::1            20650                       # Per bank write bursts
system.mem_ctrls3.perBankRdBursts::2            20160                       # Per bank write bursts
system.mem_ctrls3.perBankRdBursts::3            20767                       # Per bank write bursts
system.mem_ctrls3.perBankRdBursts::4            20369                       # Per bank write bursts
system.mem_ctrls3.perBankRdBursts::5            20586                       # Per bank write bursts
system.mem_ctrls3.perBankRdBursts::6            20514                       # Per bank write bursts
system.mem_ctrls3.perBankRdBursts::7            20553                       # Per bank write bursts
system.mem_ctrls3.perBankRdBursts::8            20145                       # Per bank write bursts
system.mem_ctrls3.perBankRdBursts::9            20381                       # Per bank write bursts
system.mem_ctrls3.perBankRdBursts::10           20199                       # Per bank write bursts
system.mem_ctrls3.perBankRdBursts::11           20539                       # Per bank write bursts
system.mem_ctrls3.perBankRdBursts::12           20010                       # Per bank write bursts
system.mem_ctrls3.perBankRdBursts::13           19875                       # Per bank write bursts
system.mem_ctrls3.perBankRdBursts::14           20153                       # Per bank write bursts
system.mem_ctrls3.perBankRdBursts::15           20140                       # Per bank write bursts
system.mem_ctrls3.perBankWrBursts::0            12662                       # Per bank write bursts
system.mem_ctrls3.perBankWrBursts::1            12624                       # Per bank write bursts
system.mem_ctrls3.perBankWrBursts::2            12552                       # Per bank write bursts
system.mem_ctrls3.perBankWrBursts::3            12761                       # Per bank write bursts
system.mem_ctrls3.perBankWrBursts::4            12597                       # Per bank write bursts
system.mem_ctrls3.perBankWrBursts::5            12730                       # Per bank write bursts
system.mem_ctrls3.perBankWrBursts::6            12629                       # Per bank write bursts
system.mem_ctrls3.perBankWrBursts::7            12809                       # Per bank write bursts
system.mem_ctrls3.perBankWrBursts::8            12513                       # Per bank write bursts
system.mem_ctrls3.perBankWrBursts::9            12754                       # Per bank write bursts
system.mem_ctrls3.perBankWrBursts::10           12562                       # Per bank write bursts
system.mem_ctrls3.perBankWrBursts::11           12511                       # Per bank write bursts
system.mem_ctrls3.perBankWrBursts::12           12489                       # Per bank write bursts
system.mem_ctrls3.perBankWrBursts::13           12460                       # Per bank write bursts
system.mem_ctrls3.perBankWrBursts::14           12696                       # Per bank write bursts
system.mem_ctrls3.perBankWrBursts::15           12514                       # Per bank write bursts
system.mem_ctrls3.numRdRetry                    59978                       # Number of times read queue was full causing retry
system.mem_ctrls3.numWrRetry                     3062                       # Number of times write queue was full causing retry
system.mem_ctrls3.totGap                 130759546000                       # Total gap between requests
system.mem_ctrls3.readPktSize::0                    0                       # Read request sizes (log2)
system.mem_ctrls3.readPktSize::1                    0                       # Read request sizes (log2)
system.mem_ctrls3.readPktSize::2                    0                       # Read request sizes (log2)
system.mem_ctrls3.readPktSize::3                    0                       # Read request sizes (log2)
system.mem_ctrls3.readPktSize::4                    0                       # Read request sizes (log2)
system.mem_ctrls3.readPktSize::5                    0                       # Read request sizes (log2)
system.mem_ctrls3.readPktSize::6               325104                       # Read request sizes (log2)
system.mem_ctrls3.writePktSize::0                   0                       # Write request sizes (log2)
system.mem_ctrls3.writePktSize::1                   0                       # Write request sizes (log2)
system.mem_ctrls3.writePktSize::2                   0                       # Write request sizes (log2)
system.mem_ctrls3.writePktSize::3                   0                       # Write request sizes (log2)
system.mem_ctrls3.writePktSize::4                   0                       # Write request sizes (log2)
system.mem_ctrls3.writePktSize::5                   0                       # Write request sizes (log2)
system.mem_ctrls3.writePktSize::6              201864                       # Write request sizes (log2)
system.mem_ctrls3.rdQLenPdf::0                 171196                       # What read queue length does an incoming req see
system.mem_ctrls3.rdQLenPdf::1                   2136                       # What read queue length does an incoming req see
system.mem_ctrls3.rdQLenPdf::2                   2079                       # What read queue length does an incoming req see
system.mem_ctrls3.rdQLenPdf::3                   2404                       # What read queue length does an incoming req see
system.mem_ctrls3.rdQLenPdf::4                   2824                       # What read queue length does an incoming req see
system.mem_ctrls3.rdQLenPdf::5                   3229                       # What read queue length does an incoming req see
system.mem_ctrls3.rdQLenPdf::6                   3462                       # What read queue length does an incoming req see
system.mem_ctrls3.rdQLenPdf::7                   3703                       # What read queue length does an incoming req see
system.mem_ctrls3.rdQLenPdf::8                   3849                       # What read queue length does an incoming req see
system.mem_ctrls3.rdQLenPdf::9                   3906                       # What read queue length does an incoming req see
system.mem_ctrls3.rdQLenPdf::10                  3961                       # What read queue length does an incoming req see
system.mem_ctrls3.rdQLenPdf::11                  3821                       # What read queue length does an incoming req see
system.mem_ctrls3.rdQLenPdf::12                  3704                       # What read queue length does an incoming req see
system.mem_ctrls3.rdQLenPdf::13                  3630                       # What read queue length does an incoming req see
system.mem_ctrls3.rdQLenPdf::14                  3754                       # What read queue length does an incoming req see
system.mem_ctrls3.rdQLenPdf::15                  3586                       # What read queue length does an incoming req see
system.mem_ctrls3.rdQLenPdf::16                  3411                       # What read queue length does an incoming req see
system.mem_ctrls3.rdQLenPdf::17                  3351                       # What read queue length does an incoming req see
system.mem_ctrls3.rdQLenPdf::18                  3268                       # What read queue length does an incoming req see
system.mem_ctrls3.rdQLenPdf::19                  3172                       # What read queue length does an incoming req see
system.mem_ctrls3.rdQLenPdf::20                  3019                       # What read queue length does an incoming req see
system.mem_ctrls3.rdQLenPdf::21                  2835                       # What read queue length does an incoming req see
system.mem_ctrls3.rdQLenPdf::22                  2691                       # What read queue length does an incoming req see
system.mem_ctrls3.rdQLenPdf::23                  2581                       # What read queue length does an incoming req see
system.mem_ctrls3.rdQLenPdf::24                  2524                       # What read queue length does an incoming req see
[...]
system.ruby.L2Cache_Controller.S_I.Ack_all::total           32                      
system.ruby.L2Cache_Controller.ISS.Mem_Data |       26195      5.17%      5.17% |       15549      3.07%      8.23% |       15578      3.07%     11.31% |       15532      3.06%     14.37% |       15505      3.06%     17.43% |       15479      3.05%     20.48% |       15487      3.05%     23.54% |       15489      3.06%     26.59% |       15578      3.07%     29.67% |       15530      3.06%     32.73% |       15551      3.07%     35.80% |       15479      3.05%     38.85% |       15489      3.06%     41.91% |       15499      3.06%     44.96% |       15507      3.06%     48.02% |       15471      3.05%     51.07% |       15529      3.06%     54.14% |       15470      3.05%     57.19% |       15496      3.06%     60.25% |       15483      3.05%     63.30% |       15495      3.06%     66.36% |       15505      3.06%     69.41% |       15520      3.06%     72.48% |       15495      3.06%     75.53% |       15568      3.07%     78.60% |       15514      3.06%     81.66% |       15494      3.06%     84.72% |       15479      3.05%     87.77% |       15521      3.06%     90.84% |       15480      3.05%     93.89% |       15480      3.05%     96.94% |       15499      3.06%    100.00%
system.ruby.L2Cache_Controller.ISS.Mem_Data::total       506946                      
system.ruby.L2Cache_Controller.IS.Mem_Data |         503      3.21%      3.21% |         454      2.89%      6.10% |         438      2.79%      8.89% |         449      2.86%     11.75% |         450      2.87%     14.62% |         430      2.74%     17.36% |         472      3.01%     20.37% |         491      3.13%     23.50% |         505      3.22%     26.72% |         445      2.84%     29.55% |         487      3.10%     32.66% |         498      3.17%     35.83% |         551      3.51%     39.34% |         523      3.33%     42.68% |         510      3.25%     45.93% |         492      3.14%     49.06% |         515      3.28%     52.35% |         532      3.39%     55.74% |         529      3.37%     59.11% |         483      3.08%     62.19% |         474      3.02%     65.21% |         523      3.33%     68.54% |         477      3.04%     71.58% |         450      2.87%     74.45% |         519      3.31%     77.76% |         578      3.68%     81.44% |         522      3.33%     84.77% |         479      3.05%     87.82% |         457      2.91%     90.73% |         512      3.26%     94.00% |         488      3.11%     97.11% |         454      2.89%    100.00%
system.ruby.L2Cache_Controller.IS.Mem_Data::total        15690                      
system.ruby.L2Cache_Controller.IM.Mem_Data |       24992      3.16%      3.16% |       24665      3.12%      6.29% |       24674      3.12%      9.41% |       24679      3.12%     12.53% |       24670      3.12%     15.66% |       24674      3.12%     18.78% |       24675      3.12%     21.90% |       24666      3.12%     25.02% |       24706      3.13%     28.15% |       24680      3.12%     31.28% |       24663      3.12%     34.40% |       24687      3.12%     37.52% |       24674      3.12%     40.65% |       24671      3.12%     43.77% |       24669      3.12%     46.89% |       24662      3.12%     50.01% |       24709      3.13%     53.14% |       24680      3.12%     56.26% |       24677      3.12%     59.39% |       24675      3.12%     62.51% |       24688      3.13%     65.64% |       24695      3.13%     68.76% |       24670      3.12%     71.89% |       24674      3.12%     75.01% |       24713      3.13%     78.14% |       24680      3.12%     81.26% |       24683      3.12%     84.38% |       24670      3.12%     87.51% |       24671      3.12%     90.63% |       24672      3.12%     93.75% |       24681      3.12%     96.88% |       24668      3.12%    100.00%
system.ruby.L2Cache_Controller.IM.Mem_Data::total       790013                      
system.ruby.L2Cache_Controller.SS_MB.Exclusive_Unblock |           2      4.17%      4.17% |           4      8.33%     12.50% |           5     10.42%     22.92% |           3      6.25%     29.17% |           0      0.00%     29.17% |           0      0.00%     29.17% |           0      0.00%     29.17% |           0      0.00%     29.17% |           1      2.08%     31.25% |           1      2.08%     33.33% |           0      0.00%     33.33% |           1      2.08%     35.42% |           6     12.50%     47.92% |           0      0.00%     47.92% |           2      4.17%     52.08% |           0      0.00%     52.08% |           0      0.00%     52.08% |           0      0.00%     52.08% |           7     14.58%     66.67% |           5     10.42%     77.08% |           1      2.08%     79.17% |           0      0.00%     79.17% |           0      0.00%     79.17% |           0      0.00%     79.17% |           1      2.08%     81.25% |           1      2.08%     83.33% |           1      2.08%     85.42% |           1      2.08%     87.50% |           5     10.42%     97.92% |           0      0.00%     97.92% |           1      2.08%    100.00% |           0      0.00%    100.00%
system.ruby.L2Cache_Controller.SS_MB.Exclusive_Unblock::total           48                      
system.ruby.L2Cache_Controller.MT_MB.L1_PUTX |           7    100.00%    100.00% |           0      0.00%    100.00% |           0      0.00%    100.00% |           0      0.00%    100.00% |           0      0.00%    100.00% |           0      0.00%    100.00% |           0      0.00%    100.00% |           0      0.00%    100.00% |           0      0.00%    100.00% |           0      0.00%    100.00% |           0      0.00%    100.00% |           0      0.00%    100.00% |           0      0.00%    100.00% |           0      0.00%    100.00% |           0      0.00%    100.00% |           0      0.00%    100.00% |           0      0.00%    100.00% |           0      0.00%    100.00% |           0      0.00%    100.00% |           0      0.00%    100.00% |           0      0.00%    100.00% |           0      0.00%    100.00% |           0      0.00%    100.00% |           0      0.00%    100.00% |           0      0.00%    100.00% |           0      0.00%    100.00% |           0      0.00%    100.00% |           0      0.00%    100.00% |           0      0.00%    100.00% |           0      0.00%    100.00% |           0      0.00%    100.00% |           0      0.00%    100.00%
system.ruby.L2Cache_Controller.MT_MB.L1_PUTX::total            7                      
system.ruby.L2Cache_Controller.MT_MB.Exclusive_Unblock |      172134      9.58%      9.58% |       54374      3.02%     12.60% |       49377      2.75%     15.35% |       53086      2.95%     18.30% |       53605      2.98%     21.28% |       49608      2.76%     24.04% |       46081      2.56%     26.61% |       46079      2.56%     29.17% |       51660      2.87%     32.04% |       49945      2.78%     34.82% |       54172      3.01%     37.84% |       51157      2.85%     40.68% |       48411      2.69%     43.38% |       47031      2.62%     45.99% |       47990      2.67%     48.66% |       46732      2.60%     51.26% |       50666      2.82%     54.08% |       48479      2.70%     56.78% |       50009      2.78%     59.56% |       54122      3.01%     62.57% |       54644      3.04%     65.61% |       63495      3.53%     69.14% |       58113      3.23%     72.37% |       53355      2.97%     75.34% |       53594      2.98%     78.32% |       51528      2.87%     81.19% |       52597      2.93%     84.12% |       52399      2.92%     87.03% |       55602      3.09%     90.13% |       55254      3.07%     93.20% |       63561      3.54%     96.74% |       58683      3.26%    100.00%
system.ruby.L2Cache_Controller.MT_MB.Exclusive_Unblock::total      1797543                      
system.ruby.L2Cache_Controller.MT_IIB.WB_Data |           0      0.00%      0.00% |           0      0.00%      0.00% |           1      7.14%      7.14% |           1      7.14%     14.29% |           1      7.14%     21.43% |           0      0.00%     21.43% |           1      7.14%     28.57% |           0      0.00%     28.57% |           1      7.14%     35.71% |           1      7.14%     42.86% |           1      7.14%     50.00% |           1      7.14%     57.14% |           1      7.14%     64.29% |           0      0.00%     64.29% |           1      7.14%     71.43% |           1      7.14%     78.57% |           1      7.14%     85.71% |           1      7.14%     92.86% |           1      7.14%    100.00% |           0      0.00%    100.00% |           0      0.00%    100.00% |           0      0.00%    100.00% |           0      0.00%    100.00% |           0      0.00%    100.00% |           0      0.00%    100.00% |           0      0.00%    100.00% |           0      0.00%    100.00% |           0      0.00%    100.00% |           0      0.00%    100.00% |           0      0.00%    100.00% |           0      0.00%    100.00% |           0      0.00%    100.00%
system.ruby.L2Cache_Controller.MT_IIB.WB_Data::total           14                      
system.ruby.L2Cache_Controller.MT_IIB.WB_Data_clean |           4    100.00%    100.00% |           0      0.00%    100.00% |           0      0.00%    100.00% |           0      0.00%    100.00% |           0      0.00%    100.00% |           0      0.00%    100.00% |           0      0.00%    100.00% |           0      0.00%    100.00% |           0      0.00%    100.00% |           0      0.00%    100.00% |           0      0.00%    100.00% |           0      0.00%    100.00% |           0      0.00%    100.00% |           0      0.00%    100.00% |           0      0.00%    100.00% |           0      0.00%    100.00% |           0      0.00%    100.00% |           0      0.00%    100.00% |           0      0.00%    100.00% |           0      0.00%    100.00% |           0      0.00%    100.00% |           0      0.00%    100.00% |           0      0.00%    100.00% |           0      0.00%    100.00% |           0      0.00%    100.00% |           0      0.00%    100.00% |           0      0.00%    100.00% |           0      0.00%    100.00% |           0      0.00%    100.00% |           0      0.00%    100.00% |           0      0.00%    100.00% |           0      0.00%    100.00%
system.ruby.L2Cache_Controller.MT_IIB.WB_Data_clean::total            4                      
system.ruby.L2Cache_Controller.MT_IIB.Unblock |           0      0.00%      0.00% |           0      0.00%      0.00% |           0      0.00%      0.00% |           0      0.00%      0.00% |           0      0.00%      0.00% |           0      0.00%      0.00% |           0      0.00%      0.00% |           1     50.00%     50.00% |           0      0.00%     50.00% |           0      0.00%     50.00% |           0      0.00%     50.00% |           0      0.00%     50.00% |           0      0.00%     50.00% |           1     50.00%    100.00% |           0      0.00%    100.00% |           0      0.00%    100.00% |           0      0.00%    100.00% |           0      0.00%    100.00% |           0      0.00%    100.00% |           0      0.00%    100.00% |           0      0.00%    100.00% |           0      0.00%    100.00% |           0      0.00%    100.00% |           0      0.00%    100.00% |           0      0.00%    100.00% |           0      0.00%    100.00% |           0      0.00%    100.00% |           0      0.00%    100.00% |           0      0.00%    100.00% |           0      0.00%    100.00% |           0      0.00%    100.00% |           0      0.00%    100.00%
system.ruby.L2Cache_Controller.MT_IIB.Unblock::total            2                      
system.ruby.L2Cache_Controller.MT_IB.WB_Data |           0      0.00%      0.00% |           0      0.00%      0.00% |           0      0.00%      0.00% |           0      0.00%      0.00% |           0      0.00%      0.00% |           0      0.00%      0.00% |           0      0.00%      0.00% |           1     50.00%     50.00% |           0      0.00%     50.00% |           0      0.00%     50.00% |           0      0.00%     50.00% |           0      0.00%     50.00% |           0      0.00%     50.00% |           1     50.00%    100.00% |           0      0.00%    100.00% |           0      0.00%    100.00% |           0      0.00%    100.00% |           0      0.00%    100.00% |           0      0.00%    100.00% |           0      0.00%    100.00% |           0      0.00%    100.00% |           0      0.00%    100.00% |           0      0.00%    100.00% |           0      0.00%    100.00% |           0      0.00%    100.00% |           0      0.00%    100.00% |           0      0.00%    100.00% |           0      0.00%    100.00% |           0      0.00%    100.00% |           0      0.00%    100.00% |           0      0.00%    100.00% |           0      0.00%    100.00%
system.ruby.L2Cache_Controller.MT_IB.WB_Data::total            2                      
system.ruby.L2Cache_Controller.MT_SB.Unblock |           4     22.22%     22.22% |           0      0.00%     22.22% |           1      5.56%     27.78% |           1      5.56%     33.33% |           1      5.56%     38.89% |           0      0.00%     38.89% |           1      5.56%     44.44% |           0      0.00%     44.44% |           1      5.56%     50.00% |           1      5.56%     55.56% |           1      5.56%     61.11% |           1      5.56%     66.67% |           1      5.56%     72.22% |           0      0.00%     72.22% |           1      5.56%     77.78% |           1      5.56%     83.33% |           1      5.56%     88.89% |           1      5.56%     94.44% |           1      5.56%    100.00% |           0      0.00%    100.00% |           0      0.00%    100.00% |           0      0.00%    100.00% |           0      0.00%    100.00% |           0      0.00%    100.00% |           0      0.00%    100.00% |           0      0.00%    100.00% |           0      0.00%    100.00% |           0      0.00%    100.00% |           0      0.00%    100.00% |           0      0.00%    100.00% |           0      0.00%    100.00% |           0      0.00%    100.00%
system.ruby.L2Cache_Controller.MT_SB.Unblock::total           18                      
system.ruby.SimicsNetworkPortInterface_Controller.MessageSend |       37876     12.76%     12.76% |      148378     50.00%     62.76% |        4699      1.58%     64.35% |        3704      1.25%     65.59% |        4622      1.56%     67.15% |        3837      1.29%     68.45% |        3667      1.24%     69.68% |        4939      1.66%     71.35% |        3191      1.08%     72.42% |        4473      1.51%     73.93% |        4139      1.39%     75.32% |        3471      1.17%     76.49% |        3575      1.20%     77.70% |        3517      1.19%     78.88% |        3150      1.06%     79.94% |        3347      1.13%     81.07% |        4404      1.48%     82.56% |        3593      1.21%     83.77% |        3418      1.15%     84.92% |        3281      1.11%     86.02% |        3217      1.08%     87.11% |        3251      1.10%     88.20% |        3131      1.06%     89.26% |        3022      1.02%     90.28% |        3118      1.05%     91.33% |        4460      1.50%     92.83% |        3254      1.10%     93.93% |        3993      1.35%     95.27% |        3298      1.11%     96.38% |        3591      1.21%     97.59% |        3453      1.16%     98.76% |        3687      1.24%    100.00%
system.ruby.SimicsNetworkPortInterface_Controller.MessageSend::total       296756                      
system.ruby.SimicsNetworkPortInterface_Controller.MessageRecv |       37876     12.76%     12.76% |      148378     50.00%     62.76% |        4699      1.58%     64.35% |        3704      1.25%     65.59% |        4622      1.56%     67.15% |        3837      1.29%     68.45% |        3667      1.24%     69.68% |        4939      1.66%     71.35% |        3191      1.08%     72.42% |        4473      1.51%     73.93% |        4139      1.39%     75.32% |        3471      1.17%     76.49% |        3575      1.20%     77.70% |        3517      1.19%     78.88% |        3150      1.06%     79.94% |        3347      1.13%     81.07% |        4404      1.48%     82.56% |        3593      1.21%     83.77% |        3418      1.15%     84.92% |        3281      1.11%     86.02% |        3217      1.08%     87.11% |        3251      1.10%     88.20% |        3131      1.06%     89.26% |        3022      1.02%     90.28% |        3118      1.05%     91.33% |        4460      1.50%     92.83% |        3254      1.10%     93.93% |        3993      1.35%     95.27% |        3298      1.11%     96.38% |        3591      1.21%     97.59% |        3453      1.16%     98.76% |        3687      1.24%    100.00%
system.ruby.SimicsNetworkPortInterface_Controller.MessageRecv::total       296756                      
system.ruby.SimicsNetworkPortInterface_Controller.A.MessageSend |       37876     12.76%     12.76% |      148378     50.00%     62.76% |        4699      1.58%     64.35% |        3704      1.25%     65.59% |        4622      1.56%     67.15% |        3837      1.29%     68.45% |        3667      1.24%     69.68% |        4939      1.66%     71.35% |        3191      1.08%     72.42% |        4473      1.51%     73.93% |        4139      1.39%     75.32% |        3471      1.17%     76.49% |        3575      1.20%     77.70% |        3517      1.19%     78.88% |        3150      1.06%     79.94% |        3347      1.13%     81.07% |        4404      1.48%     82.56% |        3593      1.21%     83.77% |        3418      1.15%     84.92% |        3281      1.11%     86.02% |        3217      1.08%     87.11% |        3251      1.10%     88.20% |        3131      1.06%     89.26% |        3022      1.02%     90.28% |        3118      1.05%     91.33% |        4460      1.50%     92.83% |        3254      1.10%     93.93% |        3993      1.35%     95.27% |        3298      1.11%     96.38% |        3591      1.21%     97.59% |        3453      1.16%     98.76% |        3687      1.24%    100.00%
system.ruby.SimicsNetworkPortInterface_Controller.A.MessageSend::total       296756                      
system.ruby.SimicsNetworkPortInterface_Controller.A.MessageRecv |       37876     12.76%     12.76% |      148378     50.00%     62.76% |        4699      1.58%     64.35% |        3704      1.25%     65.59% |        4622      1.56%     67.15% |        3837      1.29%     68.45% |        3667      1.24%     69.68% |        4939      1.66%     71.35% |        3191      1.08%     72.42% |        4473      1.51%     73.93% |        4139      1.39%     75.32% |        3471      1.17%     76.49% |        3575      1.20%     77.70% |        3517      1.19%     78.88% |        3150      1.06%     79.94% |        3347      1.13%     81.07% |        4404      1.48%     82.56% |        3593      1.21%     83.77% |        3418      1.15%     84.92% |        3281      1.11%     86.02% |        3217      1.08%     87.11% |        3251      1.10%     88.20% |        3131      1.06%     89.26% |        3022      1.02%     90.28% |        3118      1.05%     91.33% |        4460      1.50%     92.83% |        3254      1.10%     93.93% |        3993      1.35%     95.27% |        3298      1.11%     96.38% |        3591      1.21%     97.59% |        3453      1.16%     98.76% |        3687      1.24%    100.00%
system.ruby.SimicsNetworkPortInterface_Controller.A.MessageRecv::total       296756                      
system.switch_cpus.kern.inst.arm                    0                       # number of arm instructions executed
system.switch_cpus.kern.inst.quiesce                0                       # number of quiesce instructions executed

---------- End Simulation Statistics   ----------
