
---------- Begin Simulation Statistics ----------
sim_seconds                                  0.091824                       # Number of seconds simulated
sim_ticks                                 91823978000                       # Number of ticks simulated
final_tick                               5267992056500                       # Number of ticks from beginning of simulation (restored from checkpoints and never reset)
sim_freq                                 1000000000000                       # Frequency of simulated ticks
host_inst_rate                                  20921                       # Simulator instruction rate (inst/s)
host_op_rate                                    37101                       # Simulator op (including micro ops) rate (op/s)
host_tick_rate                               47130144                       # Simulator tick rate (ticks/s)
host_mem_usage                                5577444                       # Number of bytes of host memory used
host_seconds                                  1948.31                       # Real time elapsed on the host
sim_insts                                    40759872                       # Number of instructions simulated
sim_ops                                      72283931                       # Number of ops (including micro ops) simulated
system.voltage_domain.voltage                       1                       # Voltage in Volts
system.clk_domain.clock                           500                       # Clock period in ticks
system.mem_ctrls0.bytes_read::ruby.dir_cntrl0     21447360                       # Number of bytes read from this memory
system.mem_ctrls0.bytes_read::total          21447360                       # Number of bytes read from this memory
system.mem_ctrls0.bytes_written::ruby.dir_cntrl0     11997312                       # Number of bytes written to this memory
system.mem_ctrls0.bytes_written::total       11997312                       # Number of bytes written to this memory
system.mem_ctrls0.num_reads::ruby.dir_cntrl0       335115                       # Number of read requests responded to by this memory
system.mem_ctrls0.num_reads::total             335115                       # Number of read requests responded to by this memory
system.mem_ctrls0.num_writes::ruby.dir_cntrl0       187458                       # Number of write requests responded to by this memory
system.mem_ctrls0.num_writes::total            187458                       # Number of write requests responded to by this memory
system.mem_ctrls0.bw_read::ruby.dir_cntrl0    233570364                       # Total read bandwidth from this memory (bytes/s)
system.mem_ctrls0.bw_read::total            233570364                       # Total read bandwidth from this memory (bytes/s)
system.mem_ctrls0.bw_write::ruby.dir_cntrl0    130655546                       # Write bandwidth from this memory (bytes/s)
system.mem_ctrls0.bw_write::total           130655546                       # Write bandwidth from this memory (bytes/s)
system.mem_ctrls0.bw_total::ruby.dir_cntrl0    364225911                       # Total bandwidth to/from this memory (bytes/s)
system.mem_ctrls0.bw_total::total           364225911                       # Total bandwidth to/from this memory (bytes/s)
system.mem_ctrls0.readReqs                     335115                       # Number of read requests accepted
system.mem_ctrls0.writeReqs                    187458                       # Number of write requests accepted
system.mem_ctrls0.readBursts                   335115                       # Number of DRAM read bursts, including those serviced by the write queue
system.mem_ctrls0.writeBursts                  187458                       # Number of DRAM write bursts, including those merged in the write queue
system.mem_ctrls0.bytesReadDRAM              21444224                       # Total number of bytes read from DRAM
system.mem_ctrls0.bytesReadWrQ                   3136                       # Total number of bytes read from write queue
system.mem_ctrls0.bytesWritten               11997120                       # Total number of bytes written to DRAM
system.mem_ctrls0.bytesReadSys               21447360                       # Total read bytes from the system interface side
system.mem_ctrls0.bytesWrittenSys            11997312                       # Total written bytes from the system interface side
system.mem_ctrls0.servicedByWrQ                    49                       # Number of DRAM read bursts serviced by the write queue
system.mem_ctrls0.mergedWrBursts                    0                       # Number of DRAM write bursts merged with an existing one
system.mem_ctrls0.neitherReadNorWriteReqs            0                       # Number of requests that are neither read nor write
system.mem_ctrls0.perBankRdBursts::0            20685                       # Per bank write bursts
system.mem_ctrls0.perBankRdBursts::1            21199                       # Per bank write bursts
system.mem_ctrls0.perBankRdBursts::2            20793                       # Per bank write bursts
system.mem_ctrls0.perBankRdBursts::3            21170                       # Per bank write bursts
system.mem_ctrls0.perBankRdBursts::4            20862                       # Per bank write bursts
system.mem_ctrls0.perBankRdBursts::5            21406                       # Per bank write bursts
system.mem_ctrls0.perBankRdBursts::6            20916                       # Per bank write bursts
system.mem_ctrls0.perBankRdBursts::7            20966                       # Per bank write bursts
system.mem_ctrls0.perBankRdBursts::8            21052                       # Per bank write bursts
system.mem_ctrls0.perBankRdBursts::9            21224                       # Per bank write bursts
system.mem_ctrls0.perBankRdBursts::10           20904                       # Per bank write bursts
system.mem_ctrls0.perBankRdBursts::11           21238                       # Per bank write bursts
system.mem_ctrls0.perBankRdBursts::12           20643                       # Per bank write bursts
system.mem_ctrls0.perBankRdBursts::13           20448                       # Per bank write bursts
system.mem_ctrls0.perBankRdBursts::14           20769                       # Per bank write bursts
system.mem_ctrls0.perBankRdBursts::15           20791                       # Per bank write bursts
system.mem_ctrls0.perBankWrBursts::0            11594                       # Per bank write bursts
system.mem_ctrls0.perBankWrBursts::1            11743                       # Per bank write bursts
system.mem_ctrls0.perBankWrBursts::2            11769                       # Per bank write bursts
system.mem_ctrls0.perBankWrBursts::3            11742                       # Per bank write bursts
system.mem_ctrls0.perBankWrBursts::4            11702                       # Per bank write bursts
system.mem_ctrls0.perBankWrBursts::5            12020                       # Per bank write bursts
system.mem_ctrls0.perBankWrBursts::6            11630                       # Per bank write bursts
system.mem_ctrls0.perBankWrBursts::7            11751                       # Per bank write bursts
system.mem_ctrls0.perBankWrBursts::8            12009                       # Per bank write bursts
system.mem_ctrls0.perBankWrBursts::9            11792                       # Per bank write bursts
system.mem_ctrls0.perBankWrBursts::10           11584                       # Per bank write bursts
system.mem_ctrls0.perBankWrBursts::11           11794                       # Per bank write bursts
system.mem_ctrls0.perBankWrBursts::12           11420                       # Per bank write bursts
system.mem_ctrls0.perBankWrBursts::13           11382                       # Per bank write bursts
system.mem_ctrls0.perBankWrBursts::14           11847                       # Per bank write bursts
system.mem_ctrls0.perBankWrBursts::15           11676                       # Per bank write bursts
system.mem_ctrls0.numRdRetry                    26556                       # Number of times read queue was full causing retry
system.mem_ctrls0.numWrRetry                     5111                       # Number of times write queue was full causing retry
system.mem_ctrls0.totGap                  91823392000                       # Total gap between requests
system.mem_ctrls0.readPktSize::0                    0                       # Read request sizes (log2)
system.mem_ctrls0.readPktSize::1                    0                       # Read request sizes (log2)
system.mem_ctrls0.readPktSize::2                    0                       # Read request sizes (log2)
system.mem_ctrls0.readPktSize::3                    0                       # Read request sizes (log2)
system.mem_ctrls0.readPktSize::4                    0                       # Read request sizes (log2)
system.mem_ctrls0.readPktSize::5                    0                       # Read request sizes (log2)
system.mem_ctrls0.readPktSize::6               335115                       # Read request sizes (log2)
system.mem_ctrls0.writePktSize::0                   0                       # Write request sizes (log2)
system.mem_ctrls0.writePktSize::1                   0                       # Write request sizes (log2)
system.mem_ctrls0.writePktSize::2                   0                       # Write request sizes (log2)
system.mem_ctrls0.writePktSize::3                   0                       # Write request sizes (log2)
system.mem_ctrls0.writePktSize::4                   0                       # Write request sizes (log2)
system.mem_ctrls0.writePktSize::5                   0                       # Write request sizes (log2)
system.mem_ctrls0.writePktSize::6              187458                       # Write request sizes (log2)
system.mem_ctrls0.rdQLenPdf::0                 134625                       # What read queue length does an incoming req see
system.mem_ctrls0.rdQLenPdf::1                  17676                       # What read queue length does an incoming req see
system.mem_ctrls0.rdQLenPdf::2                  15500                       # What read queue length does an incoming req see
system.mem_ctrls0.rdQLenPdf::3                  13772                       # What read queue length does an incoming req see
system.mem_ctrls0.rdQLenPdf::4                  12820                       # What read queue length does an incoming req see
system.mem_ctrls0.rdQLenPdf::5                  11779                       # What read queue length does an incoming req see
system.mem_ctrls0.rdQLenPdf::6                  10881                       # What read queue length does an incoming req see
system.mem_ctrls0.rdQLenPdf::7                   9992                       # What read queue length does an incoming req see
system.mem_ctrls0.rdQLenPdf::8                   8621                       # What read queue length does an incoming req see
system.mem_ctrls0.rdQLenPdf::9                   7727                       # What read queue length does an incoming req see
system.mem_ctrls0.rdQLenPdf::10                  6771                       # What read queue length does an incoming req see
system.mem_ctrls0.rdQLenPdf::11                  6113                       # What read queue length does an incoming req see
system.mem_ctrls0.rdQLenPdf::12                  5419                       # What read queue length does an incoming req see
system.mem_ctrls0.rdQLenPdf::13                  4769                       # What read queue length does an incoming req see
system.mem_ctrls0.rdQLenPdf::14                  4316                       # What read queue length does an incoming req see
system.mem_ctrls0.rdQLenPdf::15                  3832                       # What read queue length does an incoming req see
system.mem_ctrls0.rdQLenPdf::16                  3560                       # What read queue length does an incoming req see
system.mem_ctrls0.rdQLenPdf::17                  3137                       # What read queue length does an incoming req see
system.mem_ctrls0.rdQLenPdf::18                  2883                       # What read queue length does an incoming req see
system.mem_ctrls0.rdQLenPdf::19                  2595                       # What read queue length does an incoming req see
system.mem_ctrls0.rdQLenPdf::20                  2413                       # What read queue length does an incoming req see
system.mem_ctrls0.rdQLenPdf::21                  2204                       # What read queue length does an incoming req see
system.mem_ctrls0.rdQLenPdf::22                  2087                       # What read queue length does an incoming req see
system.mem_ctrls0.rdQLenPdf::23                  1886                       # What read queue length does an incoming req see
system.mem_ctrls0.rdQLenPdf::24                  1776                       # What read queue length does an incoming req see
system.mem_ctrls0.rdQLenPdf::25                  1648                       # What read queue length does an incoming req see
system.mem_ctrls0.rdQLenPdf::26                  1563                       # What read queue length does an incoming req see
system.mem_ctrls0.rdQLenPdf::27                  1502                       # What read queue length does an incoming req see
system.mem_ctrls0.rdQLenPdf::28                  1498                       # What read queue length does an incoming req see
system.mem_ctrls0.rdQLenPdf::29                  1488                       # What read queue length does an incoming req see
system.mem_ctrls0.rdQLenPdf::30                  1668                       # What read queue length does an incoming req see
system.mem_ctrls0.rdQLenPdf::31                 28545                       # What read queue length does an incoming req see
system.mem_ctrls0.wrQLenPdf::0                  31036                       # What write queue length does an incoming req see
system.mem_ctrls0.wrQLenPdf::1                  33191                       # What write queue length does an incoming req see
system.mem_ctrls0.wrQLenPdf::2                  34005                       # What write queue length does an incoming req see
system.mem_ctrls0.wrQLenPdf::3                  34183                       # What write queue length does an incoming req see
system.mem_ctrls0.wrQLenPdf::4                  34086                       # What write queue length does an incoming req see
system.mem_ctrls0.wrQLenPdf::5                   6339                       # What write queue length does an incoming req see
system.mem_ctrls0.wrQLenPdf::6                   5724                       # What write queue length does an incoming req see
system.mem_ctrls0.wrQLenPdf::7                   8894                       # What write queue length does an incoming req see
system.mem_ctrls0.bytesPerActivate::samples       155875                       # Bytes accessed per row activation
system.mem_ctrls0.bytesPerActivate::mean   214.539086                       # Bytes accessed per row activation
system.mem_ctrls0.bytesPerActivate::gmean   160.117888                       # Bytes accessed per row activation
system.mem_ctrls0.bytesPerActivate::stdev   175.059054                       # Bytes accessed per row activation
system.mem_ctrls0.bytesPerActivate::0-127        50933     32.68%     32.68% # Bytes accessed per row activation
system.mem_ctrls0.bytesPerActivate::128-255        44011     28.23%     60.91% # Bytes accessed per row activation
system.mem_ctrls0.bytesPerActivate::256-383        40972     26.29%     87.20% # Bytes accessed per row activation
system.mem_ctrls0.bytesPerActivate::384-511         7265      4.66%     91.86% # Bytes accessed per row activation
system.mem_ctrls0.bytesPerActivate::512-639         7576      4.86%     96.72% # Bytes accessed per row activation
system.mem_ctrls0.bytesPerActivate::640-767         1678      1.08%     97.79% # Bytes accessed per row activation
system.mem_ctrls0.bytesPerActivate::768-895         1141      0.73%     98.53% # Bytes accessed per row activation
system.mem_ctrls0.bytesPerActivate::896-1023          888      0.57%     99.09% # Bytes accessed per row activation
system.mem_ctrls0.bytesPerActivate::1024-1151         1411      0.91%    100.00% # Bytes accessed per row activation
system.mem_ctrls0.bytesPerActivate::total       155875                       # Bytes accessed per row activation
system.mem_ctrls0.rdPerTurnAround::samples        31551                       # Reads before turning the bus around for writes
system.mem_ctrls0.rdPerTurnAround::mean     10.619537                       # Reads before turning the bus around for writes
system.mem_ctrls0.rdPerTurnAround::stdev    25.045121                       # Reads before turning the bus around for writes
system.mem_ctrls0.rdPerTurnAround::0-127        31544     99.98%     99.98% # Reads before turning the bus around for writes
system.mem_ctrls0.rdPerTurnAround::128-255            6      0.02%    100.00% # Reads before turning the bus around for writes
system.mem_ctrls0.rdPerTurnAround::3968-4095            1      0.00%    100.00% # Reads before turning the bus around for writes
system.mem_ctrls0.rdPerTurnAround::total        31551                       # Reads before turning the bus around for writes
system.mem_ctrls0.wrPerTurnAround::samples        31551                       # Writes before turning the bus around for reads
system.mem_ctrls0.wrPerTurnAround::mean      5.941333                       # Writes before turning the bus around for reads
system.mem_ctrls0.wrPerTurnAround::gmean     5.658861                       # Writes before turning the bus around for reads
system.mem_ctrls0.wrPerTurnAround::stdev     2.337854                       # Writes before turning the bus around for reads
system.mem_ctrls0.wrPerTurnAround::4-7          27465     87.05%     87.05% # Writes before turning the bus around for reads
system.mem_ctrls0.wrPerTurnAround::8-11          2465      7.81%     94.86% # Writes before turning the bus around for reads
system.mem_ctrls0.wrPerTurnAround::12-15          943      2.99%     97.85% # Writes before turning the bus around for reads
system.mem_ctrls0.wrPerTurnAround::16-19          678      2.15%    100.00% # Writes before turning the bus around for reads
system.mem_ctrls0.wrPerTurnAround::total        31551                       # Writes before turning the bus around for reads
system.mem_ctrls0.totQLat                 27951301663                       # Total ticks spent queuing
system.mem_ctrls0.totMemAccLat            34233789163                       # Total ticks spent from burst creation until serviced by the DRAM
system.mem_ctrls0.totBusLat                1675330000                       # Total ticks spent in databus transfers
system.mem_ctrls0.avgQLat                    83420.29                       # Average queueing delay per DRAM burst
system.mem_ctrls0.avgBusLat                   5000.00                       # Average bus latency per DRAM burst
system.mem_ctrls0.avgMemAccLat              102170.29                       # Average memory access latency per DRAM burst
system.mem_ctrls0.avgRdBW                      233.54                       # Average DRAM read bandwidth in MiByte/s
system.mem_ctrls0.avgWrBW                      130.65                       # Average achieved write bandwidth in MiByte/s
system.mem_ctrls0.avgRdBWSys                   233.57                       # Average system read bandwidth in MiByte/s
system.mem_ctrls0.avgWrBWSys                   130.66                       # Average system write bandwidth in MiByte/s
system.mem_ctrls0.peakBW                     12800.00                       # Theoretical peak bandwidth in MiByte/s
system.mem_ctrls0.busUtil                        2.85                       # Data bus utilization in percentage
system.mem_ctrls0.busUtilRead                    1.82                       # Data bus utilization in percentage for reads
system.mem_ctrls0.busUtilWrite                   1.02                       # Data bus utilization in percentage for writes
system.mem_ctrls0.avgRdQLen                      1.44                       # Average read queue length when enqueuing
system.mem_ctrls0.avgWrQLen                      2.98                       # Average write queue length when enqueuing
system.mem_ctrls0.readRowHits                  255828                       # Number of row buffer hits during reads
system.mem_ctrls0.writeRowHits                 110817                       # Number of row buffer hits during writes
system.mem_ctrls0.readRowHitRate                76.35                       # Row buffer hit rate for reads
system.mem_ctrls0.writeRowHitRate               59.12                       # Row buffer hit rate for writes
system.mem_ctrls0.avgGap                    175714.00                       # Average gap between requests
system.mem_ctrls0.pageHitRate                   70.17                       # Row buffer hit rate, read and write combined
system.mem_ctrls0.memoryStateTime::IDLE   15182528500                       # Time in different power states
system.mem_ctrls0.memoryStateTime::REF     3066180000                       # Time in different power states
system.mem_ctrls0.memoryStateTime::PRE_PDN            0                       # Time in different power states
system.mem_ctrls0.memoryStateTime::ACT    73574930500                       # Time in different power states
system.mem_ctrls0.memoryStateTime::ACT_PDN            0                       # Time in different power states
system.mem_ctrls0.actEnergy::0              593573400                       # Energy for activate commands per rank (pJ)
system.mem_ctrls0.actEnergy::1              584841600                       # Energy for activate commands per rank (pJ)
system.mem_ctrls0.preEnergy::0              323874375                       # Energy for precharge commands per rank (pJ)
system.mem_ctrls0.preEnergy::1              319110000                       # Energy for precharge commands per rank (pJ)
system.mem_ctrls0.readEnergy::0            1310376600                       # Energy for read commands per rank (pJ)
system.mem_ctrls0.readEnergy::1            1303130400                       # Energy for read commands per rank (pJ)
system.mem_ctrls0.writeEnergy::0            608802480                       # Energy for write commands per rank (pJ)
system.mem_ctrls0.writeEnergy::1            605905920                       # Energy for write commands per rank (pJ)
system.mem_ctrls0.refreshEnergy::0         5997448080                       # Energy for refresh commands per rank (pJ)
system.mem_ctrls0.refreshEnergy::1         5997448080                       # Energy for refresh commands per rank (pJ)
system.mem_ctrls0.actBackEnergy::0        37877682465                       # Energy for active background per rank (pJ)
system.mem_ctrls0.actBackEnergy::1        37155621285                       # Energy for active background per rank (pJ)
system.mem_ctrls0.preBackEnergy::0        21868066500                       # Energy for precharge background per rank (pJ)
system.mem_ctrls0.preBackEnergy::1        22501453500                       # Energy for precharge background per rank (pJ)
system.mem_ctrls0.totalEnergy::0          68579823900                       # Total energy per rank (pJ)
system.mem_ctrls0.totalEnergy::1          68467510785                       # Total energy per rank (pJ)
system.mem_ctrls0.averagePower::0          746.865663                       # Core power per rank (mW)
system.mem_ctrls0.averagePower::1          745.642522                       # Core power per rank (mW)
system.mem_ctrls1.bytes_read::ruby.dir_cntrl1     21037376                       # Number of bytes read from this memory
system.mem_ctrls1.bytes_read::total          21037376                       # Number of bytes read from this memory
system.mem_ctrls1.bytes_written::ruby.dir_cntrl1     11572480                       # Number of bytes written to this memory
system.mem_ctrls1.bytes_written::total       11572480                       # Number of bytes written to this memory
system.mem_ctrls1.num_reads::ruby.dir_cntrl1       328709                       # Number of read requests responded to by this memory
system.mem_ctrls1.num_reads::total             328709                       # Number of read requests responded to by this memory
system.mem_ctrls1.num_writes::ruby.dir_cntrl1       180820                       # Number of write requests responded to by this memory
system.mem_ctrls1.num_writes::total            180820                       # Number of write requests responded to by this memory
system.mem_ctrls1.bw_read::ruby.dir_cntrl1    229105474                       # Total read bandwidth from this memory (bytes/s)
system.mem_ctrls1.bw_read::total            229105474                       # Total read bandwidth from this memory (bytes/s)
system.mem_ctrls1.bw_write::ruby.dir_cntrl1    126028955                       # Write bandwidth from this memory (bytes/s)
system.mem_ctrls1.bw_write::total           126028955                       # Write bandwidth from this memory (bytes/s)
system.mem_ctrls1.bw_total::ruby.dir_cntrl1    355134429                       # Total bandwidth to/from this memory (bytes/s)
system.mem_ctrls1.bw_total::total           355134429                       # Total bandwidth to/from this memory (bytes/s)
system.mem_ctrls1.readReqs                     328710                       # Number of read requests accepted
system.mem_ctrls1.writeReqs                    180820                       # Number of write requests accepted
system.mem_ctrls1.readBursts                   328710                       # Number of DRAM read bursts, including those serviced by the write queue
system.mem_ctrls1.writeBursts                  180820                       # Number of DRAM write bursts, including those merged in the write queue
system.mem_ctrls1.bytesReadDRAM              21034816                       # Total number of bytes read from DRAM
system.mem_ctrls1.bytesReadWrQ                   2624                       # Total number of bytes read from write queue
system.mem_ctrls1.bytesWritten               11572480                       # Total number of bytes written to DRAM
system.mem_ctrls1.bytesReadSys               21037440                       # Total read bytes from the system interface side
system.mem_ctrls1.bytesWrittenSys            11572480                       # Total written bytes from the system interface side
system.mem_ctrls1.servicedByWrQ                    41                       # Number of DRAM read bursts serviced by the write queue
system.mem_ctrls1.mergedWrBursts                    0                       # Number of DRAM write bursts merged with an existing one
system.mem_ctrls1.neitherReadNorWriteReqs            0                       # Number of requests that are neither read nor write
system.mem_ctrls1.perBankRdBursts::0            20349                       # Per bank write bursts
system.mem_ctrls1.perBankRdBursts::1            20894                       # Per bank write bursts
system.mem_ctrls1.perBankRdBursts::2            20293                       # Per bank write bursts
system.mem_ctrls1.perBankRdBursts::3            20733                       # Per bank write bursts
system.mem_ctrls1.perBankRdBursts::4            20457                       # Per bank write bursts
system.mem_ctrls1.perBankRdBursts::5            20981                       # Per bank write bursts
system.mem_ctrls1.perBankRdBursts::6            20575                       # Per bank write bursts
system.mem_ctrls1.perBankRdBursts::7            20756                       # Per bank write bursts
system.mem_ctrls1.perBankRdBursts::8            20514                       # Per bank write bursts
system.mem_ctrls1.perBankRdBursts::9            20785                       # Per bank write bursts
system.mem_ctrls1.perBankRdBursts::10           20564                       # Per bank write bursts
system.mem_ctrls1.perBankRdBursts::11           20830                       # Per bank write bursts
system.mem_ctrls1.perBankRdBursts::12           20221                       # Per bank write bursts
system.mem_ctrls1.perBankRdBursts::13           20094                       # Per bank write bursts
system.mem_ctrls1.perBankRdBursts::14           20287                       # Per bank write bursts
system.mem_ctrls1.perBankRdBursts::15           20336                       # Per bank write bursts
system.mem_ctrls1.perBankWrBursts::0            11200                       # Per bank write bursts
system.mem_ctrls1.perBankWrBursts::1            11363                       # Per bank write bursts
system.mem_ctrls1.perBankWrBursts::2            11338                       # Per bank write bursts
system.mem_ctrls1.perBankWrBursts::3            11340                       # Per bank write bursts
system.mem_ctrls1.perBankWrBursts::4            11321                       # Per bank write bursts
system.mem_ctrls1.perBankWrBursts::5            11626                       # Per bank write bursts
system.mem_ctrls1.perBankWrBursts::6            11218                       # Per bank write bursts
system.mem_ctrls1.perBankWrBursts::7            11333                       # Per bank write bursts
system.mem_ctrls1.perBankWrBursts::8            11542                       # Per bank write bursts
system.mem_ctrls1.perBankWrBursts::9            11355                       # Per bank write bursts
system.mem_ctrls1.perBankWrBursts::10           11190                       # Per bank write bursts
system.mem_ctrls1.perBankWrBursts::11           11364                       # Per bank write bursts
system.mem_ctrls1.perBankWrBursts::12           11009                       # Per bank write bursts
system.mem_ctrls1.perBankWrBursts::13           10968                       # Per bank write bursts
system.mem_ctrls1.perBankWrBursts::14           11379                       # Per bank write bursts
system.mem_ctrls1.perBankWrBursts::15           11274                       # Per bank write bursts
system.mem_ctrls1.numRdRetry                    24100                       # Number of times read queue was full causing retry
system.mem_ctrls1.numWrRetry                     4720                       # Number of times write queue was full causing retry
system.mem_ctrls1.totGap                  91823347000                       # Total gap between requests
system.mem_ctrls1.readPktSize::0                    0                       # Read request sizes (log2)
system.mem_ctrls1.readPktSize::1                    0                       # Read request sizes (log2)
system.mem_ctrls1.readPktSize::2                    0                       # Read request sizes (log2)
system.mem_ctrls1.readPktSize::3                    0                       # Read request sizes (log2)
system.mem_ctrls1.readPktSize::4                    0                       # Read request sizes (log2)
system.mem_ctrls1.readPktSize::5                    0                       # Read request sizes (log2)
system.mem_ctrls1.readPktSize::6               328710                       # Read request sizes (log2)
system.mem_ctrls1.writePktSize::0                   0                       # Write request sizes (log2)
system.mem_ctrls1.writePktSize::1                   0                       # Write request sizes (log2)
system.mem_ctrls1.writePktSize::2                   0                       # Write request sizes (log2)
system.mem_ctrls1.writePktSize::3                   0                       # Write request sizes (log2)
system.mem_ctrls1.writePktSize::4                   0                       # Write request sizes (log2)
system.mem_ctrls1.writePktSize::5                   0                       # Write request sizes (log2)
system.mem_ctrls1.writePktSize::6              180820                       # Write request sizes (log2)
system.mem_ctrls1.rdQLenPdf::0                 131931                       # What read queue length does an incoming req see
system.mem_ctrls1.rdQLenPdf::1                  15716                       # What read queue length does an incoming req see
system.mem_ctrls1.rdQLenPdf::2                  14973                       # What read queue length does an incoming req see
system.mem_ctrls1.rdQLenPdf::3                  14270                       # What read queue length does an incoming req see
system.mem_ctrls1.rdQLenPdf::4                  13092                       # What read queue length does an incoming req see
system.mem_ctrls1.rdQLenPdf::5                  12159                       # What read queue length does an incoming req see
system.mem_ctrls1.rdQLenPdf::6                  11120                       # What read queue length does an incoming req see
system.mem_ctrls1.rdQLenPdf::7                   9903                       # What read queue length does an incoming req see
system.mem_ctrls1.rdQLenPdf::8                   8435                       # What read queue length does an incoming req see
system.mem_ctrls1.rdQLenPdf::9                   7508                       # What read queue length does an incoming req see
system.mem_ctrls1.rdQLenPdf::10                  6729                       # What read queue length does an incoming req see
system.mem_ctrls1.rdQLenPdf::11                  6073                       # What read queue length does an incoming req see
system.mem_ctrls1.rdQLenPdf::12                  5364                       # What read queue length does an incoming req see
system.mem_ctrls1.rdQLenPdf::13                  4812                       # What read queue length does an incoming req see
system.mem_ctrls1.rdQLenPdf::14                  4243                       # What read queue length does an incoming req see
system.mem_ctrls1.rdQLenPdf::15                  3904                       # What read queue length does an incoming req see
system.mem_ctrls1.rdQLenPdf::16                  3500                       # What read queue length does an incoming req see
system.mem_ctrls1.rdQLenPdf::17                  3245                       # What read queue length does an incoming req see
system.mem_ctrls1.rdQLenPdf::18                  2917                       # What read queue length does an incoming req see
system.mem_ctrls1.rdQLenPdf::19                  2639                       # What read queue length does an incoming req see
system.mem_ctrls1.rdQLenPdf::20                  2455                       # What read queue length does an incoming req see
system.mem_ctrls1.rdQLenPdf::21                  2288                       # What read queue length does an incoming req see
system.mem_ctrls1.rdQLenPdf::22                  2131                       # What read queue length does an incoming req see
system.mem_ctrls1.rdQLenPdf::23                  2003                       # What read queue length does an incoming req see
system.mem_ctrls1.rdQLenPdf::24                  1902                       # What read queue length does an incoming req see
system.mem_ctrls1.rdQLenPdf::25                  1724                       # What read queue length does an incoming req see
system.mem_ctrls1.rdQLenPdf::26                  1593                       # What read queue length does an incoming req see
system.mem_ctrls1.rdQLenPdf::27                  1557                       # What read queue length does an incoming req see
system.mem_ctrls1.rdQLenPdf::28                  1496                       # What read queue length does an incoming req see
system.mem_ctrls1.rdQLenPdf::29                  1535                       # What read queue length does an incoming req see
system.mem_ctrls1.rdQLenPdf::30                  1572                       # What read queue length does an incoming req see
system.mem_ctrls1.rdQLenPdf::31                 25880                       # What read queue length does an incoming req see
system.mem_ctrls1.wrQLenPdf::0                  29881                       # What write queue length does an incoming req see
system.mem_ctrls1.wrQLenPdf::1                  31892                       # What write queue length does an incoming req see
system.mem_ctrls1.wrQLenPdf::2                  32653                       # What write queue length does an incoming req see
system.mem_ctrls1.wrQLenPdf::3                  32978                       # What write queue length does an incoming req see
system.mem_ctrls1.wrQLenPdf::4                  32939                       # What write queue length does an incoming req see
system.mem_ctrls1.wrQLenPdf::5                   6332                       # What write queue length does an incoming req see
system.mem_ctrls1.wrQLenPdf::6                   5660                       # What write queue length does an incoming req see
system.mem_ctrls1.wrQLenPdf::7                   8485                       # What write queue length does an incoming req see
system.mem_ctrls1.bytesPerActivate::samples       147338                       # Bytes accessed per row activation
system.mem_ctrls1.bytesPerActivate::mean   221.306438                       # Bytes accessed per row activation
system.mem_ctrls1.bytesPerActivate::gmean   164.830301                       # Bytes accessed per row activation
system.mem_ctrls1.bytesPerActivate::stdev   178.746854                       # Bytes accessed per row activation
system.mem_ctrls1.bytesPerActivate::0-127        46835     31.79%     31.79% # Bytes accessed per row activation
system.mem_ctrls1.bytesPerActivate::128-255        39339     26.70%     58.49% # Bytes accessed per row activation
system.mem_ctrls1.bytesPerActivate::256-383        40954     27.80%     86.28% # Bytes accessed per row activation
system.mem_ctrls1.bytesPerActivate::384-511         7402      5.02%     91.31% # Bytes accessed per row activation
system.mem_ctrls1.bytesPerActivate::512-639         7565      5.13%     96.44% # Bytes accessed per row activation
system.mem_ctrls1.bytesPerActivate::640-767         1774      1.20%     97.65% # Bytes accessed per row activation
system.mem_ctrls1.bytesPerActivate::768-895         1124      0.76%     98.41% # Bytes accessed per row activation
system.mem_ctrls1.bytesPerActivate::896-1023          896      0.61%     99.02% # Bytes accessed per row activation
system.mem_ctrls1.bytesPerActivate::1024-1151         1449      0.98%    100.00% # Bytes accessed per row activation
system.mem_ctrls1.bytesPerActivate::total       147338                       # Bytes accessed per row activation
system.mem_ctrls1.rdPerTurnAround::samples        30370                       # Reads before turning the bus around for writes
system.mem_ctrls1.rdPerTurnAround::mean     10.822061                       # Reads before turning the bus around for writes
system.mem_ctrls1.rdPerTurnAround::stdev    21.177445                       # Reads before turning the bus around for writes
system.mem_ctrls1.rdPerTurnAround::0-127        30364     99.98%     99.98% # Reads before turning the bus around for writes
system.mem_ctrls1.rdPerTurnAround::128-255            4      0.01%     99.99% # Reads before turning the bus around for writes
system.mem_ctrls1.rdPerTurnAround::1152-1279            1      0.00%    100.00% # Reads before turning the bus around for writes
system.mem_ctrls1.rdPerTurnAround::2816-2943            1      0.00%    100.00% # Reads before turning the bus around for writes
system.mem_ctrls1.rdPerTurnAround::total        30370                       # Reads before turning the bus around for writes
system.mem_ctrls1.wrPerTurnAround::samples        30370                       # Writes before turning the bus around for reads
system.mem_ctrls1.wrPerTurnAround::mean      5.953902                       # Writes before turning the bus around for reads
system.mem_ctrls1.wrPerTurnAround::gmean     5.662762                       # Writes before turning the bus around for reads
system.mem_ctrls1.wrPerTurnAround::stdev     2.375522                       # Writes before turning the bus around for reads
system.mem_ctrls1.wrPerTurnAround::4-7          26383     86.87%     86.87% # Writes before turning the bus around for reads
system.mem_ctrls1.wrPerTurnAround::8-11          2321      7.64%     94.51% # Writes before turning the bus around for reads
system.mem_ctrls1.wrPerTurnAround::12-15         1006      3.31%     97.83% # Writes before turning the bus around for reads
system.mem_ctrls1.wrPerTurnAround::16-19          660      2.17%    100.00% # Writes before turning the bus around for reads
system.mem_ctrls1.wrPerTurnAround::total        30370                       # Writes before turning the bus around for reads
system.mem_ctrls1.totQLat                 26822085586                       # Total ticks spent queuing
system.mem_ctrls1.totMemAccLat            32984629336                       # Total ticks spent from burst creation until serviced by the DRAM
system.mem_ctrls1.totBusLat                1643345000                       # Total ticks spent in databus transfers
system.mem_ctrls1.avgQLat                    81608.20                       # Average queueing delay per DRAM burst
system.mem_ctrls1.avgBusLat                   5000.00                       # Average bus latency per DRAM burst
system.mem_ctrls1.avgMemAccLat              100358.20                       # Average memory access latency per DRAM burst
system.mem_ctrls1.avgRdBW                      229.08                       # Average DRAM read bandwidth in MiByte/s
system.mem_ctrls1.avgWrBW                      126.03                       # Average achieved write bandwidth in MiByte/s
system.mem_ctrls1.avgRdBWSys                   229.11                       # Average system read bandwidth in MiByte/s
system.mem_ctrls1.avgWrBWSys                   126.03                       # Average system write bandwidth in MiByte/s
system.mem_ctrls1.peakBW                     12800.00                       # Theoretical peak bandwidth in MiByte/s
system.mem_ctrls1.busUtil                        2.77                       # Data bus utilization in percentage
system.mem_ctrls1.busUtilRead                    1.79                       # Data bus utilization in percentage for reads
system.mem_ctrls1.busUtilWrite                   0.98                       # Data bus utilization in percentage for writes
system.mem_ctrls1.avgRdQLen                      1.41                       # Average read queue length when enqueuing
system.mem_ctrls1.avgWrQLen                      2.99                       # Average write queue length when enqueuing
system.mem_ctrls1.readRowHits                  252669                       # Number of row buffer hits during reads
system.mem_ctrls1.writeRowHits                 109476                       # Number of row buffer hits during writes
system.mem_ctrls1.readRowHitRate                76.88                       # Row buffer hit rate for reads
system.mem_ctrls1.writeRowHitRate               60.54                       # Row buffer hit rate for writes
system.mem_ctrls1.avgGap                    180211.86                       # Average gap between requests
system.mem_ctrls1.pageHitRate                   71.08                       # Row buffer hit rate, read and write combined
system.mem_ctrls1.memoryStateTime::IDLE   15378876750                       # Time in different power states
system.mem_ctrls1.memoryStateTime::REF     3066180000                       # Time in different power states
system.mem_ctrls1.memoryStateTime::PRE_PDN            0                       # Time in different power states
system.mem_ctrls1.memoryStateTime::ACT    73378463250                       # Time in different power states
system.mem_ctrls1.memoryStateTime::ACT_PDN            0                       # Time in different power states
system.mem_ctrls1.actEnergy::0              562358160                       # Energy for activate commands per rank (pJ)
system.mem_ctrls1.actEnergy::1              551502000                       # Energy for activate commands per rank (pJ)
system.mem_ctrls1.preEnergy::0              306842250                       # Energy for precharge commands per rank (pJ)
system.mem_ctrls1.preEnergy::1              300918750                       # Energy for precharge commands per rank (pJ)
system.mem_ctrls1.readEnergy::0            1287273000                       # Energy for read commands per rank (pJ)
system.mem_ctrls1.readEnergy::1            1276314000                       # Energy for read commands per rank (pJ)
system.mem_ctrls1.writeEnergy::0            587975760                       # Energy for write commands per rank (pJ)
system.mem_ctrls1.writeEnergy::1            583705440                       # Energy for write commands per rank (pJ)
system.mem_ctrls1.refreshEnergy::0         5997448080                       # Energy for refresh commands per rank (pJ)
system.mem_ctrls1.refreshEnergy::1         5997448080                       # Energy for refresh commands per rank (pJ)
system.mem_ctrls1.actBackEnergy::0        37371683205                       # Energy for active background per rank (pJ)
system.mem_ctrls1.actBackEnergy::1        36413734365                       # Energy for active background per rank (pJ)
system.mem_ctrls1.preBackEnergy::0        22311925500                       # Energy for precharge background per rank (pJ)
system.mem_ctrls1.preBackEnergy::1        23152231500                       # Energy for precharge background per rank (pJ)
system.mem_ctrls1.totalEnergy::0          68425505955                       # Total energy per rank (pJ)
system.mem_ctrls1.totalEnergy::1          68275854135                       # Total energy per rank (pJ)
system.mem_ctrls1.averagePower::0          745.185070                       # Core power per rank (mW)
system.mem_ctrls1.averagePower::1          743.555293                       # Core power per rank (mW)
system.mem_ctrls2.bytes_read::ruby.dir_cntrl2     21033408                       # Number of bytes read from this memory
system.mem_ctrls2.bytes_read::total          21033408                       # Number of bytes read from this memory
system.mem_ctrls2.bytes_written::ruby.dir_cntrl2     11579520                       # Number of bytes written to this memory
system.mem_ctrls2.bytes_written::total       11579520                       # Number of bytes written to this memory
system.mem_ctrls2.num_reads::ruby.dir_cntrl2       328647                       # Number of read requests responded to by this memory
system.mem_ctrls2.num_reads::total             328647                       # Number of read requests responded to by this memory
system.mem_ctrls2.num_writes::ruby.dir_cntrl2       180930                       # Number of write requests responded to by this memory
system.mem_ctrls2.num_writes::total            180930                       # Number of write requests responded to by this memory
system.mem_ctrls2.bw_read::ruby.dir_cntrl2    229062261                       # Total read bandwidth from this memory (bytes/s)
system.mem_ctrls2.bw_read::total            229062261                       # Total read bandwidth from this memory (bytes/s)
system.mem_ctrls2.bw_write::ruby.dir_cntrl2    126105624                       # Write bandwidth from this memory (bytes/s)
system.mem_ctrls2.bw_write::total           126105624                       # Write bandwidth from this memory (bytes/s)
system.mem_ctrls2.bw_total::ruby.dir_cntrl2    355167884                       # Total bandwidth to/from this memory (bytes/s)
system.mem_ctrls2.bw_total::total           355167884                       # Total bandwidth to/from this memory (bytes/s)
system.mem_ctrls2.readReqs                     328647                       # Number of read requests accepted
system.mem_ctrls2.writeReqs                    180930                       # Number of write requests accepted
system.mem_ctrls2.readBursts                   328647                       # Number of DRAM read bursts, including those serviced by the write queue
system.mem_ctrls2.writeBursts                  180930                       # Number of DRAM write bursts, including those merged in the write queue
system.mem_ctrls2.bytesReadDRAM              21031936                       # Total number of bytes read from DRAM
system.mem_ctrls2.bytesReadWrQ                   1472                       # Total number of bytes read from write queue
system.mem_ctrls2.bytesWritten               11579328                       # Total number of bytes written to DRAM
system.mem_ctrls2.bytesReadSys               21033408                       # Total read bytes from the system interface side
system.mem_ctrls2.bytesWrittenSys            11579520                       # Total written bytes from the system interface side
system.mem_ctrls2.servicedByWrQ                    23                       # Number of DRAM read bursts serviced by the write queue
system.mem_ctrls2.mergedWrBursts                    0                       # Number of DRAM write bursts merged with an existing one
system.mem_ctrls2.neitherReadNorWriteReqs            0                       # Number of requests that are neither read nor write
system.mem_ctrls2.perBankRdBursts::0            20247                       # Per bank write bursts
system.mem_ctrls2.perBankRdBursts::1            20920                       # Per bank write bursts
system.mem_ctrls2.perBankRdBursts::2            20471                       # Per bank write bursts
system.mem_ctrls2.perBankRdBursts::3            20774                       # Per bank write bursts
system.mem_ctrls2.perBankRdBursts::4            20360                       # Per bank write bursts
system.mem_ctrls2.perBankRdBursts::5            20943                       # Per bank write bursts
system.mem_ctrls2.perBankRdBursts::6            20527                       # Per bank write bursts
system.mem_ctrls2.perBankRdBursts::7            20680                       # Per bank write bursts
system.mem_ctrls2.perBankRdBursts::8            20519                       # Per bank write bursts
system.mem_ctrls2.perBankRdBursts::9            20801                       # Per bank write bursts
system.mem_ctrls2.perBankRdBursts::10           20505                       # Per bank write bursts
system.mem_ctrls2.perBankRdBursts::11           20912                       # Per bank write bursts
system.mem_ctrls2.perBankRdBursts::12           20285                       # Per bank write bursts
system.mem_ctrls2.perBankRdBursts::13           20035                       # Per bank write bursts
system.mem_ctrls2.perBankRdBursts::14           20276                       # Per bank write bursts
system.mem_ctrls2.perBankRdBursts::15           20369                       # Per bank write bursts
system.mem_ctrls2.perBankWrBursts::0            11187                       # Per bank write bursts
system.mem_ctrls2.perBankWrBursts::1            11377                       # Per bank write bursts
system.mem_ctrls2.perBankWrBursts::2            11357                       # Per bank write bursts
system.mem_ctrls2.perBankWrBursts::3            11333                       # Per bank write bursts
system.mem_ctrls2.perBankWrBursts::4            11311                       # Per bank write bursts
system.mem_ctrls2.perBankWrBursts::5            11591                       # Per bank write bursts
system.mem_ctrls2.perBankWrBursts::6            11225                       # Per bank write bursts
system.mem_ctrls2.perBankWrBursts::7            11364                       # Per bank write bursts
system.mem_ctrls2.perBankWrBursts::8            11534                       # Per bank write bursts
system.mem_ctrls2.perBankWrBursts::9            11363                       # Per bank write bursts
system.mem_ctrls2.perBankWrBursts::10           11187                       # Per bank write bursts
system.mem_ctrls2.perBankWrBursts::11           11388                       # Per bank write bursts
system.mem_ctrls2.perBankWrBursts::12           11041                       # Per bank write bursts
system.mem_ctrls2.perBankWrBursts::13           10978                       # Per bank write bursts
system.mem_ctrls2.perBankWrBursts::14           11412                       # Per bank write bursts
system.mem_ctrls2.perBankWrBursts::15           11279                       # Per bank write bursts
system.mem_ctrls2.numRdRetry                    26401                       # Number of times read queue was full causing retry
system.mem_ctrls2.numWrRetry                     5014                       # Number of times write queue was full causing retry
system.mem_ctrls2.totGap                  91823853000                       # Total gap between requests
system.mem_ctrls2.readPktSize::0                    0                       # Read request sizes (log2)
system.mem_ctrls2.readPktSize::1                    0                       # Read request sizes (log2)
system.mem_ctrls2.readPktSize::2                    0                       # Read request sizes (log2)
system.mem_ctrls2.readPktSize::3                    0                       # Read request sizes (log2)
system.mem_ctrls2.readPktSize::4                    0                       # Read request sizes (log2)
system.mem_ctrls2.readPktSize::5                    0                       # Read request sizes (log2)
system.mem_ctrls2.readPktSize::6               328647                       # Read request sizes (log2)
system.mem_ctrls2.writePktSize::0                   0                       # Write request sizes (log2)
system.mem_ctrls2.writePktSize::1                   0                       # Write request sizes (log2)
system.mem_ctrls2.writePktSize::2                   0                       # Write request sizes (log2)
system.mem_ctrls2.writePktSize::3                   0                       # Write request sizes (log2)
system.mem_ctrls2.writePktSize::4                   0                       # Write request sizes (log2)
system.mem_ctrls2.writePktSize::5                   0                       # Write request sizes (log2)
system.mem_ctrls2.writePktSize::6              180930                       # Write request sizes (log2)
system.mem_ctrls2.rdQLenPdf::0                 131977                       # What read queue length does an incoming req see
system.mem_ctrls2.rdQLenPdf::1                  15136                       # What read queue length does an incoming req see
system.mem_ctrls2.rdQLenPdf::2                  14479                       # What read queue length does an incoming req see
system.mem_ctrls2.rdQLenPdf::3                  13844                       # What read queue length does an incoming req see
system.mem_ctrls2.rdQLenPdf::4                  12816                       # What read queue length does an incoming req see
system.mem_ctrls2.rdQLenPdf::5                  11997                       # What read queue length does an incoming req see
system.mem_ctrls2.rdQLenPdf::6                  10667                       # What read queue length does an incoming req see
system.mem_ctrls2.rdQLenPdf::7                   9659                       # What read queue length does an incoming req see
system.mem_ctrls2.rdQLenPdf::8                   8267                       # What read queue length does an incoming req see
system.mem_ctrls2.rdQLenPdf::9                   7379                       # What read queue length does an incoming req see
system.mem_ctrls2.rdQLenPdf::10                  6619                       # What read queue length does an incoming req see
system.mem_ctrls2.rdQLenPdf::11                  5929                       # What read queue length does an incoming req see
system.mem_ctrls2.rdQLenPdf::12                  5199                       # What read queue length does an incoming req see
system.mem_ctrls2.rdQLenPdf::13                  4736                       # What read queue length does an incoming req see
system.mem_ctrls2.rdQLenPdf::14                  4286                       # What read queue length does an incoming req see
system.mem_ctrls2.rdQLenPdf::15                  3867                       # What read queue length does an incoming req see
system.mem_ctrls2.rdQLenPdf::16                  3496                       # What read queue length does an incoming req see
system.mem_ctrls2.rdQLenPdf::17                  3211                       # What read queue length does an incoming req see
system.mem_ctrls2.rdQLenPdf::18                  2952                       # What read queue length does an incoming req see
system.mem_ctrls2.rdQLenPdf::19                  2692                       # What read queue length does an incoming req see
system.mem_ctrls2.rdQLenPdf::20                  2562                       # What read queue length does an incoming req see
system.mem_ctrls2.rdQLenPdf::21                  2277                       # What read queue length does an incoming req see
system.mem_ctrls2.rdQLenPdf::22                  2186                       # What read queue length does an incoming req see
system.mem_ctrls2.rdQLenPdf::23                  2109                       # What read queue length does an incoming req see
system.mem_ctrls2.rdQLenPdf::24                  1915                       # What read queue length does an incoming req see
system.mem_ctrls2.rdQLenPdf::25                  1828                       # What read queue length does an incoming req see
system.mem_ctrls2.rdQLenPdf::26                  1720                       # What read queue length does an incoming req see
system.mem_ctrls2.rdQLenPdf::27                  1679                       # What read queue length does an incoming req see
system.mem_ctrls2.rdQLenPdf::28                  1583                       # What read queue length does an incoming req see
system.mem_ctrls2.rdQLenPdf::29                  1551                       # What read queue length does an incoming req see
system.mem_ctrls2.rdQLenPdf::30                  1645                       # What read queue length does an incoming req see
system.mem_ctrls2.rdQLenPdf::31                 28361                       # What read queue length does an incoming req see
system.mem_ctrls2.wrQLenPdf::0                  29834                       # What write queue length does an incoming req see
system.mem_ctrls2.wrQLenPdf::1                  31756                       # What write queue length does an incoming req see
system.mem_ctrls2.wrQLenPdf::2                  32502                       # What write queue length does an incoming req see
system.mem_ctrls2.wrQLenPdf::3                  32862                       # What write queue length does an incoming req see
system.mem_ctrls2.wrQLenPdf::4                  32830                       # What write queue length does an incoming req see
system.mem_ctrls2.wrQLenPdf::5                   6400                       # What write queue length does an incoming req see
system.mem_ctrls2.wrQLenPdf::6                   5819                       # What write queue length does an incoming req see
system.mem_ctrls2.wrQLenPdf::7                   8927                       # What write queue length does an incoming req see
system.mem_ctrls2.bytesPerActivate::samples       147320                       # Bytes accessed per row activation
system.mem_ctrls2.bytesPerActivate::mean   221.363019                       # Bytes accessed per row activation
system.mem_ctrls2.bytesPerActivate::gmean   164.933030                       # Bytes accessed per row activation
system.mem_ctrls2.bytesPerActivate::stdev   178.710825                       # Bytes accessed per row activation
system.mem_ctrls2.bytesPerActivate::0-127        46803     31.77%     31.77% # Bytes accessed per row activation
system.mem_ctrls2.bytesPerActivate::128-255        39045     26.50%     58.27% # Bytes accessed per row activation
system.mem_ctrls2.bytesPerActivate::256-383        41274     28.02%     86.29% # Bytes accessed per row activation
system.mem_ctrls2.bytesPerActivate::384-511         7376      5.01%     91.30% # Bytes accessed per row activation
system.mem_ctrls2.bytesPerActivate::512-639         7599      5.16%     96.45% # Bytes accessed per row activation
system.mem_ctrls2.bytesPerActivate::640-767         1755      1.19%     97.65% # Bytes accessed per row activation
system.mem_ctrls2.bytesPerActivate::768-895         1109      0.75%     98.40% # Bytes accessed per row activation
system.mem_ctrls2.bytesPerActivate::896-1023          898      0.61%     99.01% # Bytes accessed per row activation
system.mem_ctrls2.bytesPerActivate::1024-1151         1461      0.99%    100.00% # Bytes accessed per row activation
system.mem_ctrls2.bytesPerActivate::total       147320                       # Bytes accessed per row activation
system.mem_ctrls2.rdPerTurnAround::samples        30340                       # Reads before turning the bus around for writes
system.mem_ctrls2.rdPerTurnAround::mean     10.830719                       # Reads before turning the bus around for writes
system.mem_ctrls2.rdPerTurnAround::stdev    21.182315                       # Reads before turning the bus around for writes
system.mem_ctrls2.rdPerTurnAround::0-127        30335     99.98%     99.98% # Reads before turning the bus around for writes
system.mem_ctrls2.rdPerTurnAround::128-255            3      0.01%     99.99% # Reads before turning the bus around for writes
system.mem_ctrls2.rdPerTurnAround::1152-1279            1      0.00%    100.00% # Reads before turning the bus around for writes
system.mem_ctrls2.rdPerTurnAround::2816-2943            1      0.00%    100.00% # Reads before turning the bus around for writes
system.mem_ctrls2.rdPerTurnAround::total        30340                       # Reads before turning the bus around for writes
system.mem_ctrls2.wrPerTurnAround::samples        30340                       # Writes before turning the bus around for reads
system.mem_ctrls2.wrPerTurnAround::mean      5.963316                       # Writes before turning the bus around for reads
system.mem_ctrls2.wrPerTurnAround::gmean     5.670106                       # Writes before turning the bus around for reads
system.mem_ctrls2.wrPerTurnAround::stdev     2.382837                       # Writes before turning the bus around for reads
system.mem_ctrls2.wrPerTurnAround::4-7          26265     86.57%     86.57% # Writes before turning the bus around for reads
system.mem_ctrls2.wrPerTurnAround::8-11          2398      7.90%     94.47% # Writes before turning the bus around for reads
system.mem_ctrls2.wrPerTurnAround::12-15         1004      3.31%     97.78% # Writes before turning the bus around for reads
system.mem_ctrls2.wrPerTurnAround::16-19          673      2.22%    100.00% # Writes before turning the bus around for reads
system.mem_ctrls2.wrPerTurnAround::total        30340                       # Writes before turning the bus around for reads
system.mem_ctrls2.totQLat                 27581538028                       # Total ticks spent queuing
system.mem_ctrls2.totMemAccLat            33743238028                       # Total ticks spent from burst creation until serviced by the DRAM
system.mem_ctrls2.totBusLat                1643120000                       # Total ticks spent in databus transfers
system.mem_ctrls2.avgQLat                    83930.38                       # Average queueing delay per DRAM burst
system.mem_ctrls2.avgBusLat                   5000.00                       # Average bus latency per DRAM burst
system.mem_ctrls2.avgMemAccLat              102680.38                       # Average memory access latency per DRAM burst
system.mem_ctrls2.avgRdBW                      229.05                       # Average DRAM read bandwidth in MiByte/s
system.mem_ctrls2.avgWrBW                      126.10                       # Average achieved write bandwidth in MiByte/s
system.mem_ctrls2.avgRdBWSys                   229.06                       # Average system read bandwidth in MiByte/s
system.mem_ctrls2.avgWrBWSys                   126.11                       # Average system write bandwidth in MiByte/s
system.mem_ctrls2.peakBW                     12800.00                       # Theoretical peak bandwidth in MiByte/s
system.mem_ctrls2.busUtil                        2.77                       # Data bus utilization in percentage
system.mem_ctrls2.busUtilRead                    1.79                       # Data bus utilization in percentage for reads
system.mem_ctrls2.busUtilWrite                   0.99                       # Data bus utilization in percentage for writes
system.mem_ctrls2.avgRdQLen                      1.42                       # Average read queue length when enqueuing
system.mem_ctrls2.avgWrQLen                      3.00                       # Average write queue length when enqueuing
system.mem_ctrls2.readRowHits                  252554                       # Number of row buffer hits during reads
system.mem_ctrls2.writeRowHits                 109676                       # Number of row buffer hits during writes
system.mem_ctrls2.readRowHitRate                76.85                       # Row buffer hit rate for reads
system.mem_ctrls2.writeRowHitRate               60.62                       # Row buffer hit rate for writes
system.mem_ctrls2.avgGap                    180196.23                       # Average gap between requests
system.mem_ctrls2.pageHitRate                   71.09                       # Row buffer hit rate, read and write combined
system.mem_ctrls2.memoryStateTime::IDLE   15426330250                       # Time in different power states
system.mem_ctrls2.memoryStateTime::REF     3066180000                       # Time in different power states
system.mem_ctrls2.memoryStateTime::PRE_PDN            0                       # Time in different power states
system.mem_ctrls2.memoryStateTime::ACT    73331338750                       # Time in different power states
system.mem_ctrls2.memoryStateTime::ACT_PDN            0                       # Time in different power states
system.mem_ctrls2.actEnergy::0              563386320                       # Energy for activate commands per rank (pJ)
system.mem_ctrls2.actEnergy::1              550352880                       # Energy for activate commands per rank (pJ)
system.mem_ctrls2.preEnergy::0              307403250                       # Energy for precharge commands per rank (pJ)
system.mem_ctrls2.preEnergy::1              300291750                       # Energy for precharge commands per rank (pJ)
system.mem_ctrls2.readEnergy::0            1286383800                       # Energy for read commands per rank (pJ)
system.mem_ctrls2.readEnergy::1            1276875600                       # Energy for read commands per rank (pJ)
system.mem_ctrls2.writeEnergy::0            588027600                       # Energy for write commands per rank (pJ)
system.mem_ctrls2.writeEnergy::1            584379360                       # Energy for write commands per rank (pJ)
system.mem_ctrls2.refreshEnergy::0         5997448080                       # Energy for refresh commands per rank (pJ)
system.mem_ctrls2.refreshEnergy::1         5997448080                       # Energy for refresh commands per rank (pJ)
system.mem_ctrls2.actBackEnergy::0        37262776725                       # Energy for active background per rank (pJ)
system.mem_ctrls2.actBackEnergy::1        36342821520                       # Energy for active background per rank (pJ)
system.mem_ctrls2.preBackEnergy::0        22407457500                       # Energy for precharge background per rank (pJ)
system.mem_ctrls2.preBackEnergy::1        23214435750                       # Energy for precharge background per rank (pJ)
system.mem_ctrls2.totalEnergy::0          68412883275                       # Total energy per rank (pJ)
system.mem_ctrls2.totalEnergy::1          68266604940                       # Total energy per rank (pJ)
system.mem_ctrls2.averagePower::0          745.047603                       # Core power per rank (mW)
system.mem_ctrls2.averagePower::1          743.454565                       # Core power per rank (mW)
system.mem_ctrls3.bytes_read::ruby.dir_cntrl3     21019264                       # Number of bytes read from this memory
system.mem_ctrls3.bytes_read::total          21019264                       # Number of bytes read from this memory
system.mem_ctrls3.bytes_written::ruby.dir_cntrl3     11582720                       # Number of bytes written to this memory
system.mem_ctrls3.bytes_written::total       11582720                       # Number of bytes written to this memory
system.mem_ctrls3.num_reads::ruby.dir_cntrl3       328426                       # Number of read requests responded to by this memory
system.mem_ctrls3.num_reads::total             328426                       # Number of read requests responded to by this memory
system.mem_ctrls3.num_writes::ruby.dir_cntrl3       180980                       # Number of write requests responded to by this memory
system.mem_ctrls3.num_writes::total            180980                       # Number of write requests responded to by this memory
system.mem_ctrls3.bw_read::ruby.dir_cntrl3    228908227                       # Total read bandwidth from this memory (bytes/s)
system.mem_ctrls3.bw_read::total            228908227                       # Total read bandwidth from this memory (bytes/s)
system.mem_ctrls3.bw_write::ruby.dir_cntrl3    126140473                       # Write bandwidth from this memory (bytes/s)
system.mem_ctrls3.bw_write::total           126140473                       # Write bandwidth from this memory (bytes/s)
system.mem_ctrls3.bw_total::ruby.dir_cntrl3    355048700                       # Total bandwidth to/from this memory (bytes/s)
system.mem_ctrls3.bw_total::total           355048700                       # Total bandwidth to/from this memory (bytes/s)
system.mem_ctrls3.readReqs                     328427                       # Number of read requests accepted
system.mem_ctrls3.writeReqs                    180980                       # Number of write requests accepted
system.mem_ctrls3.readBursts                   328427                       # Number of DRAM read bursts, including those serviced by the write queue
system.mem_ctrls3.writeBursts                  180980                       # Number of DRAM write bursts, including those merged in the write queue
system.mem_ctrls3.bytesReadDRAM              21017984                       # Total number of bytes read from DRAM
system.mem_ctrls3.bytesReadWrQ                   1344                       # Total number of bytes read from write queue
system.mem_ctrls3.bytesWritten               11582720                       # Total number of bytes written to DRAM
system.mem_ctrls3.bytesReadSys               21019328                       # Total read bytes from the system interface side
system.mem_ctrls3.bytesWrittenSys            11582720                       # Total written bytes from the system interface side
system.mem_ctrls3.servicedByWrQ                    21                       # Number of DRAM read bursts serviced by the write queue
system.mem_ctrls3.mergedWrBursts                    0                       # Number of DRAM write bursts merged with an existing one
system.mem_ctrls3.neitherReadNorWriteReqs            0                       # Number of requests that are neither read nor write
system.mem_ctrls3.perBankRdBursts::0            20269                       # Per bank write bursts
system.mem_ctrls3.perBankRdBursts::1            20791                       # Per bank write bursts
system.mem_ctrls3.perBankRdBursts::2            20373                       # Per bank write bursts
system.mem_ctrls3.perBankRdBursts::3            20807                       # Per bank write bursts
system.mem_ctrls3.perBankRdBursts::4            20352                       # Per bank write bursts
system.mem_ctrls3.perBankRdBursts::5            20866                       # Per bank write bursts
system.mem_ctrls3.perBankRdBursts::6            20566                       # Per bank write bursts
system.mem_ctrls3.perBankRdBursts::7            20638                       # Per bank write bursts
system.mem_ctrls3.perBankRdBursts::8            20607                       # Per bank write bursts
system.mem_ctrls3.perBankRdBursts::9            20765                       # Per bank write bursts
system.mem_ctrls3.perBankRdBursts::10           20530                       # Per bank write bursts
system.mem_ctrls3.perBankRdBursts::11           20797                       # Per bank write bursts
system.mem_ctrls3.perBankRdBursts::12           20278                       # Per bank write bursts
system.mem_ctrls3.perBankRdBursts::13           20088                       # Per bank write bursts
system.mem_ctrls3.perBankRdBursts::14           20343                       # Per bank write bursts
system.mem_ctrls3.perBankRdBursts::15           20336                       # Per bank write bursts
system.mem_ctrls3.perBankWrBursts::0            11192                       # Per bank write bursts
system.mem_ctrls3.perBankWrBursts::1            11323                       # Per bank write bursts
system.mem_ctrls3.perBankWrBursts::2            11374                       # Per bank write bursts
system.mem_ctrls3.perBankWrBursts::3            11363                       # Per bank write bursts
system.mem_ctrls3.perBankWrBursts::4            11314                       # Per bank write bursts
system.mem_ctrls3.perBankWrBursts::5            11600                       # Per bank write bursts
system.mem_ctrls3.perBankWrBursts::6            11233                       # Per bank write bursts
system.mem_ctrls3.perBankWrBursts::7            11372                       # Per bank write bursts
system.mem_ctrls3.perBankWrBursts::8            11571                       # Per bank write bursts
system.mem_ctrls3.perBankWrBursts::9            11360                       # Per bank write bursts
system.mem_ctrls3.perBankWrBursts::10           11189                       # Per bank write bursts
system.mem_ctrls3.perBankWrBursts::11           11384                       # Per bank write bursts
system.mem_ctrls3.perBankWrBursts::12           11048                       # Per bank write bursts
system.mem_ctrls3.perBankWrBursts::13           10993                       # Per bank write bursts
system.mem_ctrls3.perBankWrBursts::14           11392                       # Per bank write bursts
system.mem_ctrls3.perBankWrBursts::15           11272                       # Per bank write bursts
system.mem_ctrls3.numRdRetry                    25636                       # Number of times read queue was full causing retry
system.mem_ctrls3.numWrRetry                     4856                       # Number of times write queue was full causing retry
system.mem_ctrls3.totGap                  91823236500                       # Total gap between requests
system.mem_ctrls3.readPktSize::0                    0                       # Read request sizes (log2)
system.mem_ctrls3.readPktSize::1                    0                       # Read request sizes (log2)
system.mem_ctrls3.readPktSize::2                    0                       # Read request sizes (log2)
system.mem_ctrls3.readPktSize::3                    0                       # Read request sizes (log2)
system.mem_ctrls3.readPktSize::4                    0                       # Read request sizes (log2)
system.mem_ctrls3.readPktSize::5                    0                       # Read request sizes (log2)
system.mem_ctrls3.readPktSize::6               328427                       # Read request sizes (log2)
system.mem_ctrls3.writePktSize::0                   0                       # Write request sizes (log2)
system.mem_ctrls3.writePktSize::1                   0                       # Write request sizes (log2)
system.mem_ctrls3.writePktSize::2                   0                       # Write request sizes (log2)
system.mem_ctrls3.writePktSize::3                   0                       # Write request sizes (log2)
system.mem_ctrls3.writePktSize::4                   0                       # Write request sizes (log2)
system.mem_ctrls3.writePktSize::5                   0                       # Write request sizes (log2)
system.mem_ctrls3.writePktSize::6              180980                       # Write request sizes (log2)
system.mem_ctrls3.rdQLenPdf::0                 131497                       # What read queue length does an incoming req see
system.mem_ctrls3.rdQLenPdf::1                  15132                       # What read queue length does an incoming req see
system.mem_ctrls3.rdQLenPdf::2                  14438                       # What read queue length does an incoming req see
system.mem_ctrls3.rdQLenPdf::3                  13657                       # What read queue length does an incoming req see
system.mem_ctrls3.rdQLenPdf::4                  12705                       # What read queue length does an incoming req see
system.mem_ctrls3.rdQLenPdf::5                  11848                       # What read queue length does an incoming req see
system.mem_ctrls3.rdQLenPdf::6                  10721                       # What read queue length does an incoming req see
system.mem_ctrls3.rdQLenPdf::7                   9686                       # What read queue length does an incoming req see
system.mem_ctrls3.rdQLenPdf::8                   8454                       # What read queue length does an incoming req see
system.mem_ctrls3.rdQLenPdf::9                   7475                       # What read queue length does an incoming req see
system.mem_ctrls3.rdQLenPdf::10                  6698                       # What read queue length does an incoming req see
system.mem_ctrls3.rdQLenPdf::11                  6051                       # What read queue length does an incoming req see
system.mem_ctrls3.rdQLenPdf::12                  5404                       # What read queue length does an incoming req see
system.mem_ctrls3.rdQLenPdf::13                  4901                       # What read queue length does an incoming req see
system.mem_ctrls3.rdQLenPdf::14                  4576                       # What read queue length does an incoming req see
system.mem_ctrls3.rdQLenPdf::15                  4052                       # What read queue length does an incoming req see
system.mem_ctrls3.rdQLenPdf::16                  3801                       # What read queue length does an incoming req see
system.mem_ctrls3.rdQLenPdf::17                  3364                       # What read queue length does an incoming req see
system.mem_ctrls3.rdQLenPdf::18                  3149                       # What read queue length does an incoming req see
system.mem_ctrls3.rdQLenPdf::19                  2790                       # What read queue length does an incoming req see
system.mem_ctrls3.rdQLenPdf::20                  2545                       # What read queue length does an incoming req see
system.mem_ctrls3.rdQLenPdf::21                  2301                       # What read queue length does an incoming req see
system.mem_ctrls3.rdQLenPdf::22                  2135                       # What read queue length does an incoming req see
system.mem_ctrls3.rdQLenPdf::23                  2009                       # What read queue length does an incoming req see
system.mem_ctrls3.rdQLenPdf::24                  1911                       # What read queue length does an incoming req see
[...]
system.ruby.L2Cache_Controller.MT_MB.Exclusive_Unblock::total      2609175                      
system.ruby.L2Cache_Controller.MT_IIB.L1_GETS |           3      2.91%      2.91% |           5      4.85%      7.77% |           1      0.97%      8.74% |           1      0.97%      9.71% |           1      0.97%     10.68% |           1      0.97%     11.65% |           4      3.88%     15.53% |           3      2.91%     18.45% |           3      2.91%     21.36% |           6      5.83%     27.18% |           7      6.80%     33.98% |           0      0.00%     33.98% |           4      3.88%     37.86% |           1      0.97%     38.83% |           3      2.91%     41.75% |           1      0.97%     42.72% |           3      2.91%     45.63% |           2      1.94%     47.57% |           1      0.97%     48.54% |           6      5.83%     54.37% |           7      6.80%     61.17% |           1      0.97%     62.14% |           2      1.94%     64.08% |           2      1.94%     66.02% |          10      9.71%     75.73% |           4      3.88%     79.61% |           1      0.97%     80.58% |           7      6.80%     87.38% |           4      3.88%     91.26% |           5      4.85%     96.12% |           1      0.97%     97.09% |           3      2.91%    100.00%
system.ruby.L2Cache_Controller.MT_IIB.L1_GETS::total          103                      
system.ruby.L2Cache_Controller.MT_IIB.L1_PUTX |           0      0.00%      0.00% |           3      1.91%      1.91% |           7      4.46%      6.37% |           1      0.64%      7.01% |           1      0.64%      7.64% |           4      2.55%     10.19% |           5      3.18%     13.38% |           5      3.18%     16.56% |           4      2.55%     19.11% |           9      5.73%     24.84% |           6      3.82%     28.66% |           5      3.18%     31.85% |           4      2.55%     34.39% |           8      5.10%     39.49% |           8      5.10%     44.59% |           3      1.91%     46.50% |           9      5.73%     52.23% |           5      3.18%     55.41% |           5      3.18%     58.60% |           5      3.18%     61.78% |           5      3.18%     64.97% |           4      2.55%     67.52% |           8      5.10%     72.61% |           7      4.46%     77.07% |           5      3.18%     80.25% |           5      3.18%     83.44% |           3      1.91%     85.35% |           5      3.18%     88.54% |           6      3.82%     92.36% |           3      1.91%     94.27% |           3      1.91%     96.18% |           6      3.82%    100.00%
system.ruby.L2Cache_Controller.MT_IIB.L1_PUTX::total          157                      
system.ruby.L2Cache_Controller.MT_IIB.WB_Data |           0      0.00%      0.00% |           0      0.00%      0.00% |           0      0.00%      0.00% |           0      0.00%      0.00% |           0      0.00%      0.00% |           0      0.00%      0.00% |           0      0.00%      0.00% |           0      0.00%      0.00% |           0      0.00%      0.00% |           0      0.00%      0.00% |           0      0.00%      0.00% |           0      0.00%      0.00% |           0      0.00%      0.00% |           0      0.00%      0.00% |           0      0.00%      0.00% |           0      0.00%      0.00% |           0      0.00%      0.00% |           0      0.00%      0.00% |           0      0.00%      0.00% |           0      0.00%      0.00% |           0      0.00%      0.00% |           0      0.00%      0.00% |           0      0.00%      0.00% |           0      0.00%      0.00% |           0      0.00%      0.00% |           2    100.00%    100.00% |           0      0.00%    100.00% |           0      0.00%    100.00% |           0      0.00%    100.00% |           0      0.00%    100.00% |           0      0.00%    100.00% |           0      0.00%    100.00%
system.ruby.L2Cache_Controller.MT_IIB.WB_Data::total            2                      
system.ruby.L2Cache_Controller.MT_IIB.WB_Data_clean |        1433      2.75%      2.75% |        1499      2.88%      5.63% |        1524      2.93%      8.55% |        1491      2.86%     11.42% |        1549      2.97%     14.39% |        1596      3.06%     17.46% |        1659      3.19%     20.64% |        1671      3.21%     23.85% |        1664      3.19%     27.04% |        1764      3.39%     30.43% |        1836      3.52%     33.95% |        1751      3.36%     37.32% |        1813      3.48%     40.80% |        1811      3.48%     44.27% |        1777      3.41%     47.69% |        1756      3.37%     51.06% |        1783      3.42%     54.48% |        1752      3.36%     57.84% |        1741      3.34%     61.19% |        1696      3.26%     64.44% |        1681      3.23%     67.67% |        1605      3.08%     70.75% |        1590      3.05%     73.80% |        1531      2.94%     76.74% |        1511      2.90%     79.64% |        1487      2.85%     82.50% |        1479      2.84%     85.34% |        1455      2.79%     88.13% |        1534      2.95%     91.08% |        1515      2.91%     93.99% |        1571      3.02%     97.00% |        1562      3.00%    100.00%
system.ruby.L2Cache_Controller.MT_IIB.WB_Data_clean::total        52087                      
system.ruby.L2Cache_Controller.MT_IIB.Unblock |          21      0.95%      0.95% |          22      0.99%      1.94% |          41      1.85%      3.79% |          62      2.80%      6.59% |          50      2.26%      8.84% |          50      2.26%     11.10% |          33      1.49%     12.59% |          32      1.44%     14.03% |          91      4.11%     18.14% |          74      3.34%     21.48% |          83      3.75%     25.23% |         111      5.01%     30.23% |          65      2.93%     33.17% |          72      3.25%     36.42% |          77      3.47%     39.89% |          70      3.16%     43.05% |          61      2.75%     45.80% |          69      3.11%     48.92% |          86      3.88%     52.80% |          79      3.56%     56.36% |          96      4.33%     60.69% |          73      3.29%     63.99% |          88      3.97%     67.96% |          87      3.93%     71.89% |          89      4.02%     75.90% |          92      4.15%     80.05% |          84      3.79%     83.84% |          92      4.15%     88.00% |          69      3.11%     91.11% |          77      3.47%     94.58% |          66      2.98%     97.56% |          54      2.44%    100.00%
system.ruby.L2Cache_Controller.MT_IIB.Unblock::total         2216                      
system.ruby.L2Cache_Controller.MT_IB.L1_GETS |           0      0.00%      0.00% |           0      0.00%      0.00% |           0      0.00%      0.00% |           0      0.00%      0.00% |           0      0.00%      0.00% |           0      0.00%      0.00% |           0      0.00%      0.00% |           0      0.00%      0.00% |           0      0.00%      0.00% |           0      0.00%      0.00% |           0      0.00%      0.00% |           0      0.00%      0.00% |           0      0.00%      0.00% |           0      0.00%      0.00% |           0      0.00%      0.00% |           0      0.00%      0.00% |           0      0.00%      0.00% |           0      0.00%      0.00% |           0      0.00%      0.00% |           0      0.00%      0.00% |           0      0.00%      0.00% |           0      0.00%      0.00% |           0      0.00%      0.00% |           0      0.00%      0.00% |           0      0.00%      0.00% |           0      0.00%      0.00% |           1    100.00%    100.00% |           0      0.00%    100.00% |           0      0.00%    100.00% |           0      0.00%    100.00% |           0      0.00%    100.00% |           0      0.00%    100.00%
system.ruby.L2Cache_Controller.MT_IB.L1_GETS::total            1                      
system.ruby.L2Cache_Controller.MT_IB.L1_PUTX |           0      0.00%      0.00% |           0      0.00%      0.00% |           0      0.00%      0.00% |           0      0.00%      0.00% |           0      0.00%      0.00% |           0      0.00%      0.00% |           0      0.00%      0.00% |           0      0.00%      0.00% |           0      0.00%      0.00% |           0      0.00%      0.00% |           0      0.00%      0.00% |           0      0.00%      0.00% |           0      0.00%      0.00% |           0      0.00%      0.00% |           0      0.00%      0.00% |           0      0.00%      0.00% |           0      0.00%      0.00% |           0      0.00%      0.00% |           0      0.00%      0.00% |           0      0.00%      0.00% |           0      0.00%      0.00% |           0      0.00%      0.00% |           0      0.00%      0.00% |           0      0.00%      0.00% |           0      0.00%      0.00% |           0      0.00%      0.00% |           0      0.00%      0.00% |           0      0.00%      0.00% |           0      0.00%      0.00% |           1    100.00%    100.00% |           0      0.00%    100.00% |           0      0.00%    100.00%
system.ruby.L2Cache_Controller.MT_IB.L1_PUTX::total            1                      
system.ruby.L2Cache_Controller.MT_IB.WB_Data_clean |          21      0.95%      0.95% |          22      0.99%      1.94% |          41      1.85%      3.79% |          62      2.80%      6.59% |          50      2.26%      8.84% |          50      2.26%     11.10% |          33      1.49%     12.59% |          32      1.44%     14.03% |          91      4.11%     18.14% |          74      3.34%     21.48% |          83      3.75%     25.23% |         111      5.01%     30.23% |          65      2.93%     33.17% |          72      3.25%     36.42% |          77      3.47%     39.89% |          70      3.16%     43.05% |          61      2.75%     45.80% |          69      3.11%     48.92% |          86      3.88%     52.80% |          79      3.56%     56.36% |          96      4.33%     60.69% |          73      3.29%     63.99% |          88      3.97%     67.96% |          87      3.93%     71.89% |          89      4.02%     75.90% |          92      4.15%     80.05% |          84      3.79%     83.84% |          92      4.15%     88.00% |          69      3.11%     91.11% |          77      3.47%     94.58% |          66      2.98%     97.56% |          54      2.44%    100.00%
system.ruby.L2Cache_Controller.MT_IB.WB_Data_clean::total         2216                      
system.ruby.L2Cache_Controller.MT_SB.L1_GETS |           0      0.00%      0.00% |           0      0.00%      0.00% |           0      0.00%      0.00% |           0      0.00%      0.00% |           1      5.56%      5.56% |           1      5.56%     11.11% |           1      5.56%     16.67% |           1      5.56%     22.22% |           0      0.00%     22.22% |           1      5.56%     27.78% |           0      0.00%     27.78% |           2     11.11%     38.89% |           1      5.56%     44.44% |           0      0.00%     44.44% |           0      0.00%     44.44% |           0      0.00%     44.44% |           0      0.00%     44.44% |           0      0.00%     44.44% |           1      5.56%     50.00% |           1      5.56%     55.56% |           0      0.00%     55.56% |           2     11.11%     66.67% |           1      5.56%     72.22% |           0      0.00%     72.22% |           1      5.56%     77.78% |           0      0.00%     77.78% |           0      0.00%     77.78% |           1      5.56%     83.33% |           0      0.00%     83.33% |           1      5.56%     88.89% |           2     11.11%    100.00% |           0      0.00%    100.00%
system.ruby.L2Cache_Controller.MT_SB.L1_GETS::total           18                      
system.ruby.L2Cache_Controller.MT_SB.L1_PUTX |           0      0.00%      0.00% |           0      0.00%      0.00% |           0      0.00%      0.00% |           0      0.00%      0.00% |           0      0.00%      0.00% |           2     14.29%     14.29% |           1      7.14%     21.43% |           0      0.00%     21.43% |           1      7.14%     28.57% |           0      0.00%     28.57% |           0      0.00%     28.57% |           0      0.00%     28.57% |           0      0.00%     28.57% |           1      7.14%     35.71% |           3     21.43%     57.14% |           1      7.14%     64.29% |           1      7.14%     71.43% |           1      7.14%     78.57% |           2     14.29%     92.86% |           0      0.00%     92.86% |           0      0.00%     92.86% |           0      0.00%     92.86% |           1      7.14%    100.00% |           0      0.00%    100.00% |           0      0.00%    100.00% |           0      0.00%    100.00% |           0      0.00%    100.00% |           0      0.00%    100.00% |           0      0.00%    100.00% |           0      0.00%    100.00% |           0      0.00%    100.00% |           0      0.00%    100.00%
system.ruby.L2Cache_Controller.MT_SB.L1_PUTX::total           14                      
system.ruby.L2Cache_Controller.MT_SB.Unblock |        1433      2.75%      2.75% |        1499      2.88%      5.63% |        1524      2.93%      8.55% |        1491      2.86%     11.42% |        1549      2.97%     14.39% |        1596      3.06%     17.45% |        1659      3.18%     20.64% |        1671      3.21%     23.85% |        1664      3.19%     27.04% |        1764      3.39%     30.43% |        1836      3.52%     33.95% |        1751      3.36%     37.31% |        1813      3.48%     40.80% |        1811      3.48%     44.27% |        1777      3.41%     47.68% |        1756      3.37%     51.05% |        1783      3.42%     54.48% |        1752      3.36%     57.84% |        1741      3.34%     61.18% |        1696      3.26%     64.44% |        1681      3.23%     67.67% |        1605      3.08%     70.75% |        1590      3.05%     73.80% |        1531      2.94%     76.74% |        1511      2.90%     79.64% |        1489      2.86%     82.50% |        1479      2.84%     85.34% |        1455      2.79%     88.13% |        1534      2.94%     91.08% |        1515      2.91%     93.99% |        1571      3.02%     97.00% |        1562      3.00%    100.00%
system.ruby.L2Cache_Controller.MT_SB.Unblock::total        52089                      
system.ruby.SimicsNetworkPortInterface_Controller.MessageSend |      448985     21.64%     21.64% |     1037167     50.00%     71.64% |       19868      0.96%     72.60% |       20873      1.01%     73.61% |       19636      0.95%     74.56% |       19823      0.96%     75.51% |       20065      0.97%     76.48% |       20382      0.98%     77.46% |       19403      0.94%     78.40% |       19839      0.96%     79.35% |       19186      0.92%     80.28% |       20073      0.97%     81.25% |       20413      0.98%     82.23% |       19932      0.96%     83.19% |       19734      0.95%     84.14% |       20161      0.97%     85.11% |       19444      0.94%     86.05% |       19761      0.95%     87.00% |       18930      0.91%     87.92% |       20057      0.97%     88.88% |       19638      0.95%     89.83% |       19075      0.92%     90.75% |       19135      0.92%     91.67% |       19320      0.93%     92.60% |       19313      0.93%     93.53% |       19987      0.96%     94.50% |       19019      0.92%     95.41% |       19637      0.95%     96.36% |       18985      0.92%     97.28% |       19527      0.94%     98.22% |       17552      0.85%     99.06% |       19414      0.94%    100.00%
system.ruby.SimicsNetworkPortInterface_Controller.MessageSend::total      2074334                      
system.ruby.SimicsNetworkPortInterface_Controller.MessageRecv |      448985     21.64%     21.64% |     1037167     50.00%     71.64% |       19868      0.96%     72.60% |       20873      1.01%     73.61% |       19636      0.95%     74.56% |       19823      0.96%     75.51% |       20065      0.97%     76.48% |       20382      0.98%     77.46% |       19403      0.94%     78.40% |       19839      0.96%     79.35% |       19186      0.92%     80.28% |       20073      0.97%     81.25% |       20413      0.98%     82.23% |       19932      0.96%     83.19% |       19734      0.95%     84.14% |       20161      0.97%     85.11% |       19444      0.94%     86.05% |       19761      0.95%     87.00% |       18930      0.91%     87.92% |       20057      0.97%     88.88% |       19638      0.95%     89.83% |       19075      0.92%     90.75% |       19135      0.92%     91.67% |       19320      0.93%     92.60% |       19313      0.93%     93.53% |       19987      0.96%     94.50% |       19019      0.92%     95.41% |       19637      0.95%     96.36% |       18985      0.92%     97.28% |       19527      0.94%     98.22% |       17552      0.85%     99.06% |       19414      0.94%    100.00%
system.ruby.SimicsNetworkPortInterface_Controller.MessageRecv::total      2074334                      
system.ruby.SimicsNetworkPortInterface_Controller.A.MessageSend |      448985     21.64%     21.64% |     1037167     50.00%     71.64% |       19868      0.96%     72.60% |       20873      1.01%     73.61% |       19636      0.95%     74.56% |       19823      0.96%     75.51% |       20065      0.97%     76.48% |       20382      0.98%     77.46% |       19403      0.94%     78.40% |       19839      0.96%     79.35% |       19186      0.92%     80.28% |       20073      0.97%     81.25% |       20413      0.98%     82.23% |       19932      0.96%     83.19% |       19734      0.95%     84.14% |       20161      0.97%     85.11% |       19444      0.94%     86.05% |       19761      0.95%     87.00% |       18930      0.91%     87.92% |       20057      0.97%     88.88% |       19638      0.95%     89.83% |       19075      0.92%     90.75% |       19135      0.92%     91.67% |       19320      0.93%     92.60% |       19313      0.93%     93.53% |       19987      0.96%     94.50% |       19019      0.92%     95.41% |       19637      0.95%     96.36% |       18985      0.92%     97.28% |       19527      0.94%     98.22% |       17552      0.85%     99.06% |       19414      0.94%    100.00%
system.ruby.SimicsNetworkPortInterface_Controller.A.MessageSend::total      2074334                      
system.ruby.SimicsNetworkPortInterface_Controller.A.MessageRecv |      448985     21.64%     21.64% |     1037167     50.00%     71.64% |       19868      0.96%     72.60% |       20873      1.01%     73.61% |       19636      0.95%     74.56% |       19823      0.96%     75.51% |       20065      0.97%     76.48% |       20382      0.98%     77.46% |       19403      0.94%     78.40% |       19839      0.96%     79.35% |       19186      0.92%     80.28% |       20073      0.97%     81.25% |       20413      0.98%     82.23% |       19932      0.96%     83.19% |       19734      0.95%     84.14% |       20161      0.97%     85.11% |       19444      0.94%     86.05% |       19761      0.95%     87.00% |       18930      0.91%     87.92% |       20057      0.97%     88.88% |       19638      0.95%     89.83% |       19075      0.92%     90.75% |       19135      0.92%     91.67% |       19320      0.93%     92.60% |       19313      0.93%     93.53% |       19987      0.96%     94.50% |       19019      0.92%     95.41% |       19637      0.95%     96.36% |       18985      0.92%     97.28% |       19527      0.94%     98.22% |       17552      0.85%     99.06% |       19414      0.94%    100.00%
system.ruby.SimicsNetworkPortInterface_Controller.A.MessageRecv::total      2074334                      
system.switch_cpus.kern.inst.arm                    0                       # number of arm instructions executed
system.switch_cpus.kern.inst.quiesce                0                       # number of quiesce instructions executed

---------- End Simulation Statistics   ----------
