
---------- Begin Simulation Statistics ----------
sim_seconds                                  0.055137                       # Number of seconds simulated
sim_ticks                                 55136871500                       # Number of ticks simulated
final_tick                               5231304950000                       # Number of ticks from beginning of simulation (restored from checkpoints and never reset)
sim_freq                                 1000000000000                       # Frequency of simulated ticks
host_inst_rate                                  39984                       # Simulator instruction rate (inst/s)
host_op_rate                                    72683                       # Simulator op (including micro ops) rate (op/s)
host_tick_rate                               64934729                       # Simulator tick rate (ticks/s)
host_mem_usage                                4807136                       # Number of bytes of host memory used
host_seconds                                   849.11                       # Real time elapsed on the host
sim_insts                                    33950719                       # Number of instructions simulated
sim_ops                                      61716178                       # Number of ops (including micro ops) simulated
system.voltage_domain.voltage                       1                       # Voltage in Volts
system.clk_domain.clock                           500                       # Clock period in ticks
system.mem_ctrls0.bytes_read::ruby.dir_cntrl0     14071424                       # Number of bytes read from this memory
system.mem_ctrls0.bytes_read::total          14071424                       # Number of bytes read from this memory
system.mem_ctrls0.bytes_written::ruby.dir_cntrl0      4009920                       # Number of bytes written to this memory
system.mem_ctrls0.bytes_written::total        4009920                       # Number of bytes written to this memory
system.mem_ctrls0.num_reads::ruby.dir_cntrl0       219866                       # Number of read requests responded to by this memory
system.mem_ctrls0.num_reads::total             219866                       # Number of read requests responded to by this memory
system.mem_ctrls0.num_writes::ruby.dir_cntrl0        62655                       # Number of write requests responded to by this memory
system.mem_ctrls0.num_writes::total             62655                       # Number of write requests responded to by this memory
system.mem_ctrls0.bw_read::ruby.dir_cntrl0    255208967                       # Total read bandwidth from this memory (bytes/s)
system.mem_ctrls0.bw_read::total            255208967                       # Total read bandwidth from this memory (bytes/s)
system.mem_ctrls0.bw_write::ruby.dir_cntrl0     72726651                       # Write bandwidth from this memory (bytes/s)
system.mem_ctrls0.bw_write::total            72726651                       # Write bandwidth from this memory (bytes/s)
system.mem_ctrls0.bw_total::ruby.dir_cntrl0    327935617                       # Total bandwidth to/from this memory (bytes/s)
system.mem_ctrls0.bw_total::total           327935617                       # Total bandwidth to/from this memory (bytes/s)
system.mem_ctrls0.readReqs                     219866                       # Number of read requests accepted
system.mem_ctrls0.writeReqs                     62655                       # Number of write requests accepted
system.mem_ctrls0.readBursts                   219866                       # Number of DRAM read bursts, including those serviced by the write queue
system.mem_ctrls0.writeBursts                   62655                       # Number of DRAM write bursts, including those merged in the write queue
system.mem_ctrls0.bytesReadDRAM              14069440                       # Total number of bytes read from DRAM
system.mem_ctrls0.bytesReadWrQ                   1984                       # Total number of bytes read from write queue
system.mem_ctrls0.bytesWritten                4009856                       # Total number of bytes written to DRAM
system.mem_ctrls0.bytesReadSys               14071424                       # Total read bytes from the system interface side
system.mem_ctrls0.bytesWrittenSys             4009920                       # Total written bytes from the system interface side
system.mem_ctrls0.servicedByWrQ                    31                       # Number of DRAM read bursts serviced by the write queue
system.mem_ctrls0.mergedWrBursts                    0                       # Number of DRAM write bursts merged with an existing one
system.mem_ctrls0.neitherReadNorWriteReqs            0                       # Number of requests that are neither read nor write
system.mem_ctrls0.perBankRdBursts::0            13503                       # Per bank write bursts
system.mem_ctrls0.perBankRdBursts::1            14020                       # Per bank write bursts
system.mem_ctrls0.perBankRdBursts::2            13710                       # Per bank write bursts
system.mem_ctrls0.perBankRdBursts::3            14103                       # Per bank write bursts
system.mem_ctrls0.perBankRdBursts::4            13738                       # Per bank write bursts
system.mem_ctrls0.perBankRdBursts::5            14313                       # Per bank write bursts
system.mem_ctrls0.perBankRdBursts::6            13747                       # Per bank write bursts
system.mem_ctrls0.perBankRdBursts::7            13694                       # Per bank write bursts
system.mem_ctrls0.perBankRdBursts::8            13592                       # Per bank write bursts
system.mem_ctrls0.perBankRdBursts::9            13964                       # Per bank write bursts
system.mem_ctrls0.perBankRdBursts::10           13641                       # Per bank write bursts
system.mem_ctrls0.perBankRdBursts::11           13873                       # Per bank write bursts
system.mem_ctrls0.perBankRdBursts::12           13429                       # Per bank write bursts
system.mem_ctrls0.perBankRdBursts::13           13301                       # Per bank write bursts
system.mem_ctrls0.perBankRdBursts::14           13598                       # Per bank write bursts
system.mem_ctrls0.perBankRdBursts::15           13609                       # Per bank write bursts
system.mem_ctrls0.perBankWrBursts::0             3848                       # Per bank write bursts
system.mem_ctrls0.perBankWrBursts::1             3932                       # Per bank write bursts
system.mem_ctrls0.perBankWrBursts::2             3916                       # Per bank write bursts
system.mem_ctrls0.perBankWrBursts::3             4136                       # Per bank write bursts
system.mem_ctrls0.perBankWrBursts::4             3929                       # Per bank write bursts
system.mem_ctrls0.perBankWrBursts::5             4076                       # Per bank write bursts
system.mem_ctrls0.perBankWrBursts::6             3975                       # Per bank write bursts
system.mem_ctrls0.perBankWrBursts::7             3943                       # Per bank write bursts
system.mem_ctrls0.perBankWrBursts::8             3823                       # Per bank write bursts
system.mem_ctrls0.perBankWrBursts::9             4077                       # Per bank write bursts
system.mem_ctrls0.perBankWrBursts::10            3844                       # Per bank write bursts
system.mem_ctrls0.perBankWrBursts::11            3770                       # Per bank write bursts
system.mem_ctrls0.perBankWrBursts::12            3731                       # Per bank write bursts
system.mem_ctrls0.perBankWrBursts::13            3768                       # Per bank write bursts
system.mem_ctrls0.perBankWrBursts::14            4014                       # Per bank write bursts
system.mem_ctrls0.perBankWrBursts::15            3872                       # Per bank write bursts
system.mem_ctrls0.numRdRetry                     2235                       # Number of times read queue was full causing retry
system.mem_ctrls0.numWrRetry                      846                       # Number of times write queue was full causing retry
system.mem_ctrls0.totGap                  55136380000                       # Total gap between requests
system.mem_ctrls0.readPktSize::0                    0                       # Read request sizes (log2)
system.mem_ctrls0.readPktSize::1                    0                       # Read request sizes (log2)
system.mem_ctrls0.readPktSize::2                    0                       # Read request sizes (log2)
system.mem_ctrls0.readPktSize::3                    0                       # Read request sizes (log2)
system.mem_ctrls0.readPktSize::4                    0                       # Read request sizes (log2)
system.mem_ctrls0.readPktSize::5                    0                       # Read request sizes (log2)
system.mem_ctrls0.readPktSize::6               219866                       # Read request sizes (log2)
system.mem_ctrls0.writePktSize::0                   0                       # Write request sizes (log2)
system.mem_ctrls0.writePktSize::1                   0                       # Write request sizes (log2)
system.mem_ctrls0.writePktSize::2                   0                       # Write request sizes (log2)
system.mem_ctrls0.writePktSize::3                   0                       # Write request sizes (log2)
system.mem_ctrls0.writePktSize::4                   0                       # Write request sizes (log2)
system.mem_ctrls0.writePktSize::5                   0                       # Write request sizes (log2)
system.mem_ctrls0.writePktSize::6               62655                       # Write request sizes (log2)
system.mem_ctrls0.rdQLenPdf::0                 112428                       # What read queue length does an incoming req see
system.mem_ctrls0.rdQLenPdf::1                  48276                       # What read queue length does an incoming req see
system.mem_ctrls0.rdQLenPdf::2                  29321                       # What read queue length does an incoming req see
system.mem_ctrls0.rdQLenPdf::3                  14893                       # What read queue length does an incoming req see
system.mem_ctrls0.rdQLenPdf::4                   6590                       # What read queue length does an incoming req see
system.mem_ctrls0.rdQLenPdf::5                   2660                       # What read queue length does an incoming req see
system.mem_ctrls0.rdQLenPdf::6                    959                       # What read queue length does an incoming req see
system.mem_ctrls0.rdQLenPdf::7                    376                       # What read queue length does an incoming req see
system.mem_ctrls0.rdQLenPdf::8                    186                       # What read queue length does an incoming req see
system.mem_ctrls0.rdQLenPdf::9                    121                       # What read queue length does an incoming req see
system.mem_ctrls0.rdQLenPdf::10                    98                       # What read queue length does an incoming req see
system.mem_ctrls0.rdQLenPdf::11                    91                       # What read queue length does an incoming req see
system.mem_ctrls0.rdQLenPdf::12                    93                       # What read queue length does an incoming req see
system.mem_ctrls0.rdQLenPdf::13                    77                       # What read queue length does an incoming req see
system.mem_ctrls0.rdQLenPdf::14                    80                       # What read queue length does an incoming req see
system.mem_ctrls0.rdQLenPdf::15                   103                       # What read queue length does an incoming req see
system.mem_ctrls0.rdQLenPdf::16                   122                       # What read queue length does an incoming req see
system.mem_ctrls0.rdQLenPdf::17                   154                       # What read queue length does an incoming req see
system.mem_ctrls0.rdQLenPdf::18                   136                       # What read queue length does an incoming req see
system.mem_ctrls0.rdQLenPdf::19                   122                       # What read queue length does an incoming req see
system.mem_ctrls0.rdQLenPdf::20                    96                       # What read queue length does an incoming req see
system.mem_ctrls0.rdQLenPdf::21                    58                       # What read queue length does an incoming req see
system.mem_ctrls0.rdQLenPdf::22                    43                       # What read queue length does an incoming req see
system.mem_ctrls0.rdQLenPdf::23                    45                       # What read queue length does an incoming req see
system.mem_ctrls0.rdQLenPdf::24                    49                       # What read queue length does an incoming req see
system.mem_ctrls0.rdQLenPdf::25                    39                       # What read queue length does an incoming req see
system.mem_ctrls0.rdQLenPdf::26                    41                       # What read queue length does an incoming req see
system.mem_ctrls0.rdQLenPdf::27                    36                       # What read queue length does an incoming req see
system.mem_ctrls0.rdQLenPdf::28                    32                       # What read queue length does an incoming req see
system.mem_ctrls0.rdQLenPdf::29                    30                       # What read queue length does an incoming req see
system.mem_ctrls0.rdQLenPdf::30                    49                       # What read queue length does an incoming req see
system.mem_ctrls0.rdQLenPdf::31                  2431                       # What read queue length does an incoming req see
system.mem_ctrls0.wrQLenPdf::0                  11869                       # What write queue length does an incoming req see
system.mem_ctrls0.wrQLenPdf::1                  12136                       # What write queue length does an incoming req see
system.mem_ctrls0.wrQLenPdf::2                  12154                       # What write queue length does an incoming req see
system.mem_ctrls0.wrQLenPdf::3                  12129                       # What write queue length does an incoming req see
system.mem_ctrls0.wrQLenPdf::4                  12092                       # What write queue length does an incoming req see
system.mem_ctrls0.wrQLenPdf::5                    437                       # What write queue length does an incoming req see
system.mem_ctrls0.wrQLenPdf::6                    417                       # What write queue length does an incoming req see
system.mem_ctrls0.wrQLenPdf::7                   1421                       # What write queue length does an incoming req see
system.mem_ctrls0.bytesPerActivate::samples       111510                       # Bytes accessed per row activation
system.mem_ctrls0.bytesPerActivate::mean   162.127020                       # Bytes accessed per row activation
system.mem_ctrls0.bytesPerActivate::gmean   109.445835                       # Bytes accessed per row activation
system.mem_ctrls0.bytesPerActivate::stdev   193.324433                       # Bytes accessed per row activation
system.mem_ctrls0.bytesPerActivate::0-127        68604     61.52%     61.52% # Bytes accessed per row activation
system.mem_ctrls0.bytesPerActivate::128-255        18747     16.81%     78.33% # Bytes accessed per row activation
system.mem_ctrls0.bytesPerActivate::256-383        14837     13.31%     91.64% # Bytes accessed per row activation
system.mem_ctrls0.bytesPerActivate::384-511         2472      2.22%     93.86% # Bytes accessed per row activation
system.mem_ctrls0.bytesPerActivate::512-639         1658      1.49%     95.34% # Bytes accessed per row activation
system.mem_ctrls0.bytesPerActivate::640-767         1212      1.09%     96.43% # Bytes accessed per row activation
system.mem_ctrls0.bytesPerActivate::768-895          929      0.83%     97.26% # Bytes accessed per row activation
system.mem_ctrls0.bytesPerActivate::896-1023          959      0.86%     98.12% # Bytes accessed per row activation
system.mem_ctrls0.bytesPerActivate::1024-1151         2092      1.88%    100.00% # Bytes accessed per row activation
system.mem_ctrls0.bytesPerActivate::total       111510                       # Bytes accessed per row activation
system.mem_ctrls0.rdPerTurnAround::samples        11958                       # Reads before turning the bus around for writes
system.mem_ctrls0.rdPerTurnAround::mean     18.345125                       # Reads before turning the bus around for writes
system.mem_ctrls0.rdPerTurnAround::stdev    89.978929                       # Reads before turning the bus around for writes
system.mem_ctrls0.rdPerTurnAround::0-127        11679     97.67%     97.67% # Reads before turning the bus around for writes
system.mem_ctrls0.rdPerTurnAround::128-255          153      1.28%     98.95% # Reads before turning the bus around for writes
system.mem_ctrls0.rdPerTurnAround::256-383           44      0.37%     99.31% # Reads before turning the bus around for writes
system.mem_ctrls0.rdPerTurnAround::384-511           17      0.14%     99.46% # Reads before turning the bus around for writes
system.mem_ctrls0.rdPerTurnAround::512-639           17      0.14%     99.60% # Reads before turning the bus around for writes
system.mem_ctrls0.rdPerTurnAround::640-767           11      0.09%     99.69% # Reads before turning the bus around for writes
system.mem_ctrls0.rdPerTurnAround::768-895            7      0.06%     99.75% # Reads before turning the bus around for writes
system.mem_ctrls0.rdPerTurnAround::896-1023            9      0.08%     99.82% # Reads before turning the bus around for writes
system.mem_ctrls0.rdPerTurnAround::1024-1151            6      0.05%     99.87% # Reads before turning the bus around for writes
system.mem_ctrls0.rdPerTurnAround::1152-1279            4      0.03%     99.91% # Reads before turning the bus around for writes
system.mem_ctrls0.rdPerTurnAround::1280-1407            3      0.03%     99.93% # Reads before turning the bus around for writes
system.mem_ctrls0.rdPerTurnAround::1408-1535            2      0.02%     99.95% # Reads before turning the bus around for writes
system.mem_ctrls0.rdPerTurnAround::1536-1663            1      0.01%     99.96% # Reads before turning the bus around for writes
system.mem_ctrls0.rdPerTurnAround::1664-1791            2      0.02%     99.97% # Reads before turning the bus around for writes
system.mem_ctrls0.rdPerTurnAround::2432-2559            1      0.01%     99.98% # Reads before turning the bus around for writes
system.mem_ctrls0.rdPerTurnAround::2560-2687            1      0.01%     99.99% # Reads before turning the bus around for writes
system.mem_ctrls0.rdPerTurnAround::3968-4095            1      0.01%    100.00% # Reads before turning the bus around for writes
system.mem_ctrls0.rdPerTurnAround::total        11958                       # Reads before turning the bus around for writes
system.mem_ctrls0.wrPerTurnAround::samples        11958                       # Writes before turning the bus around for reads
system.mem_ctrls0.wrPerTurnAround::mean      5.239505                       # Writes before turning the bus around for reads
system.mem_ctrls0.wrPerTurnAround::gmean     5.152866                       # Writes before turning the bus around for reads
system.mem_ctrls0.wrPerTurnAround::stdev     1.365413                       # Writes before turning the bus around for reads
system.mem_ctrls0.wrPerTurnAround::4-7          11678     97.66%     97.66% # Writes before turning the bus around for reads
system.mem_ctrls0.wrPerTurnAround::8-11            96      0.80%     98.46% # Writes before turning the bus around for reads
system.mem_ctrls0.wrPerTurnAround::12-15           48      0.40%     98.86% # Writes before turning the bus around for reads
system.mem_ctrls0.wrPerTurnAround::16-19          136      1.14%    100.00% # Writes before turning the bus around for reads
system.mem_ctrls0.wrPerTurnAround::total        11958                       # Writes before turning the bus around for reads
system.mem_ctrls0.totQLat                  5371216384                       # Total ticks spent queuing
system.mem_ctrls0.totMemAccLat             9493122634                       # Total ticks spent from burst creation until serviced by the DRAM
system.mem_ctrls0.totBusLat                1099175000                       # Total ticks spent in databus transfers
system.mem_ctrls0.avgQLat                    24432.94                       # Average queueing delay per DRAM burst
system.mem_ctrls0.avgBusLat                   5000.00                       # Average bus latency per DRAM burst
system.mem_ctrls0.avgMemAccLat               43182.94                       # Average memory access latency per DRAM burst
system.mem_ctrls0.avgRdBW                      255.17                       # Average DRAM read bandwidth in MiByte/s
system.mem_ctrls0.avgWrBW                       72.73                       # Average achieved write bandwidth in MiByte/s
system.mem_ctrls0.avgRdBWSys                   255.21                       # Average system read bandwidth in MiByte/s
system.mem_ctrls0.avgWrBWSys                    72.73                       # Average system write bandwidth in MiByte/s
system.mem_ctrls0.peakBW                     12800.00                       # Theoretical peak bandwidth in MiByte/s
system.mem_ctrls0.busUtil                        2.56                       # Data bus utilization in percentage
system.mem_ctrls0.busUtilRead                    1.99                       # Data bus utilization in percentage for reads
system.mem_ctrls0.busUtilWrite                   0.57                       # Data bus utilization in percentage for writes
system.mem_ctrls0.avgRdQLen                      1.18                       # Average read queue length when enqueuing
system.mem_ctrls0.avgWrQLen                      2.87                       # Average write queue length when enqueuing
system.mem_ctrls0.readRowHits                  133944                       # Number of row buffer hits during reads
system.mem_ctrls0.writeRowHits                  37030                       # Number of row buffer hits during writes
system.mem_ctrls0.readRowHitRate                60.93                       # Row buffer hit rate for reads
system.mem_ctrls0.writeRowHitRate               59.10                       # Row buffer hit rate for writes
system.mem_ctrls0.avgGap                    195158.52                       # Average gap between requests
system.mem_ctrls0.pageHitRate                   60.52                       # Row buffer hit rate, read and write combined
system.mem_ctrls0.memoryStateTime::IDLE   10782459500                       # Time in different power states
system.mem_ctrls0.memoryStateTime::REF     1841060000                       # Time in different power states
system.mem_ctrls0.memoryStateTime::PRE_PDN            0                       # Time in different power states
system.mem_ctrls0.memoryStateTime::ACT    42511220000                       # Time in different power states
system.mem_ctrls0.memoryStateTime::ACT_PDN            0                       # Time in different power states
system.mem_ctrls0.actEnergy::0              421545600                       # Energy for activate commands per rank (pJ)
system.mem_ctrls0.actEnergy::1              421447320                       # Energy for activate commands per rank (pJ)
system.mem_ctrls0.preEnergy::0              230010000                       # Energy for precharge commands per rank (pJ)
system.mem_ctrls0.preEnergy::1              229956375                       # Energy for precharge commands per rank (pJ)
system.mem_ctrls0.readEnergy::0             864411600                       # Energy for read commands per rank (pJ)
system.mem_ctrls0.readEnergy::1             850215600                       # Energy for read commands per rank (pJ)
system.mem_ctrls0.writeEnergy::0            205772400                       # Energy for write commands per rank (pJ)
system.mem_ctrls0.writeEnergy::1            200225520                       # Energy for write commands per rank (pJ)
system.mem_ctrls0.refreshEnergy::0         3601113360                       # Energy for refresh commands per rank (pJ)
system.mem_ctrls0.refreshEnergy::1         3601113360                       # Energy for refresh commands per rank (pJ)
system.mem_ctrls0.actBackEnergy::0        22516628490                       # Energy for active background per rank (pJ)
system.mem_ctrls0.actBackEnergy::1        21986631090                       # Energy for active background per rank (pJ)
system.mem_ctrls0.preBackEnergy::0        13329407250                       # Energy for precharge background per rank (pJ)
system.mem_ctrls0.preBackEnergy::1        13794317250                       # Energy for precharge background per rank (pJ)
system.mem_ctrls0.totalEnergy::0          41168888700                       # Total energy per rank (pJ)
system.mem_ctrls0.totalEnergy::1          41083906515                       # Total energy per rank (pJ)
system.mem_ctrls0.averagePower::0          746.696166                       # Core power per rank (mW)
system.mem_ctrls0.averagePower::1          745.154811                       # Core power per rank (mW)
system.mem_ctrls1.bytes_read::ruby.dir_cntrl1     13847168                       # Number of bytes read from this memory
system.mem_ctrls1.bytes_read::total          13847168                       # Number of bytes read from this memory
system.mem_ctrls1.bytes_written::ruby.dir_cntrl1      3839808                       # Number of bytes written to this memory
system.mem_ctrls1.bytes_written::total        3839808                       # Number of bytes written to this memory
system.mem_ctrls1.num_reads::ruby.dir_cntrl1       216362                       # Number of read requests responded to by this memory
system.mem_ctrls1.num_reads::total             216362                       # Number of read requests responded to by this memory
system.mem_ctrls1.num_writes::ruby.dir_cntrl1        59997                       # Number of write requests responded to by this memory
system.mem_ctrls1.num_writes::total             59997                       # Number of write requests responded to by this memory
system.mem_ctrls1.bw_read::ruby.dir_cntrl1    251141707                       # Total read bandwidth from this memory (bytes/s)
system.mem_ctrls1.bw_read::total            251141707                       # Total read bandwidth from this memory (bytes/s)
system.mem_ctrls1.bw_write::ruby.dir_cntrl1     69641383                       # Write bandwidth from this memory (bytes/s)
system.mem_ctrls1.bw_write::total            69641383                       # Write bandwidth from this memory (bytes/s)
system.mem_ctrls1.bw_total::ruby.dir_cntrl1    320783090                       # Total bandwidth to/from this memory (bytes/s)
system.mem_ctrls1.bw_total::total           320783090                       # Total bandwidth to/from this memory (bytes/s)
system.mem_ctrls1.readReqs                     216362                       # Number of read requests accepted
system.mem_ctrls1.writeReqs                     59997                       # Number of write requests accepted
system.mem_ctrls1.readBursts                   216362                       # Number of DRAM read bursts, including those serviced by the write queue
system.mem_ctrls1.writeBursts                   59997                       # Number of DRAM write bursts, including those merged in the write queue
system.mem_ctrls1.bytesReadDRAM              13845504                       # Total number of bytes read from DRAM
system.mem_ctrls1.bytesReadWrQ                   1664                       # Total number of bytes read from write queue
system.mem_ctrls1.bytesWritten                3839808                       # Total number of bytes written to DRAM
system.mem_ctrls1.bytesReadSys               13847168                       # Total read bytes from the system interface side
system.mem_ctrls1.bytesWrittenSys             3839808                       # Total written bytes from the system interface side
system.mem_ctrls1.servicedByWrQ                    26                       # Number of DRAM read bursts serviced by the write queue
system.mem_ctrls1.mergedWrBursts                    0                       # Number of DRAM write bursts merged with an existing one
system.mem_ctrls1.neitherReadNorWriteReqs            0                       # Number of requests that are neither read nor write
system.mem_ctrls1.perBankRdBursts::0            13290                       # Per bank write bursts
system.mem_ctrls1.perBankRdBursts::1            13802                       # Per bank write bursts
system.mem_ctrls1.perBankRdBursts::2            13472                       # Per bank write bursts
system.mem_ctrls1.perBankRdBursts::3            13893                       # Per bank write bursts
system.mem_ctrls1.perBankRdBursts::4            13530                       # Per bank write bursts
system.mem_ctrls1.perBankRdBursts::5            14127                       # Per bank write bursts
system.mem_ctrls1.perBankRdBursts::6            13536                       # Per bank write bursts
system.mem_ctrls1.perBankRdBursts::7            13506                       # Per bank write bursts
system.mem_ctrls1.perBankRdBursts::8            13384                       # Per bank write bursts
system.mem_ctrls1.perBankRdBursts::9            13704                       # Per bank write bursts
system.mem_ctrls1.perBankRdBursts::10           13414                       # Per bank write bursts
system.mem_ctrls1.perBankRdBursts::11           13654                       # Per bank write bursts
system.mem_ctrls1.perBankRdBursts::12           13210                       # Per bank write bursts
system.mem_ctrls1.perBankRdBursts::13           13101                       # Per bank write bursts
system.mem_ctrls1.perBankRdBursts::14           13294                       # Per bank write bursts
system.mem_ctrls1.perBankRdBursts::15           13419                       # Per bank write bursts
system.mem_ctrls1.perBankWrBursts::0             3686                       # Per bank write bursts
system.mem_ctrls1.perBankWrBursts::1             3780                       # Per bank write bursts
system.mem_ctrls1.perBankWrBursts::2             3763                       # Per bank write bursts
system.mem_ctrls1.perBankWrBursts::3             3981                       # Per bank write bursts
system.mem_ctrls1.perBankWrBursts::4             3771                       # Per bank write bursts
system.mem_ctrls1.perBankWrBursts::5             3921                       # Per bank write bursts
system.mem_ctrls1.perBankWrBursts::6             3798                       # Per bank write bursts
system.mem_ctrls1.perBankWrBursts::7             3777                       # Per bank write bursts
system.mem_ctrls1.perBankWrBursts::8             3665                       # Per bank write bursts
system.mem_ctrls1.perBankWrBursts::9             3900                       # Per bank write bursts
system.mem_ctrls1.perBankWrBursts::10            3675                       # Per bank write bursts
system.mem_ctrls1.perBankWrBursts::11            3603                       # Per bank write bursts
system.mem_ctrls1.perBankWrBursts::12            3566                       # Per bank write bursts
system.mem_ctrls1.perBankWrBursts::13            3599                       # Per bank write bursts
system.mem_ctrls1.perBankWrBursts::14            3798                       # Per bank write bursts
system.mem_ctrls1.perBankWrBursts::15            3714                       # Per bank write bursts
system.mem_ctrls1.numRdRetry                     1741                       # Number of times read queue was full causing retry
system.mem_ctrls1.numWrRetry                      767                       # Number of times write queue was full causing retry
system.mem_ctrls1.totGap                  55136121000                       # Total gap between requests
system.mem_ctrls1.readPktSize::0                    0                       # Read request sizes (log2)
system.mem_ctrls1.readPktSize::1                    0                       # Read request sizes (log2)
system.mem_ctrls1.readPktSize::2                    0                       # Read request sizes (log2)
system.mem_ctrls1.readPktSize::3                    0                       # Read request sizes (log2)
system.mem_ctrls1.readPktSize::4                    0                       # Read request sizes (log2)
system.mem_ctrls1.readPktSize::5                    0                       # Read request sizes (log2)
system.mem_ctrls1.readPktSize::6               216362                       # Read request sizes (log2)
system.mem_ctrls1.writePktSize::0                   0                       # Write request sizes (log2)
system.mem_ctrls1.writePktSize::1                   0                       # Write request sizes (log2)
system.mem_ctrls1.writePktSize::2                   0                       # Write request sizes (log2)
system.mem_ctrls1.writePktSize::3                   0                       # Write request sizes (log2)
system.mem_ctrls1.writePktSize::4                   0                       # Write request sizes (log2)
system.mem_ctrls1.writePktSize::5                   0                       # Write request sizes (log2)
system.mem_ctrls1.writePktSize::6               59997                       # Write request sizes (log2)
system.mem_ctrls1.rdQLenPdf::0                 110387                       # What read queue length does an incoming req see
system.mem_ctrls1.rdQLenPdf::1                  48810                       # What read queue length does an incoming req see
system.mem_ctrls1.rdQLenPdf::2                  29062                       # What read queue length does an incoming req see
system.mem_ctrls1.rdQLenPdf::3                  14170                       # What read queue length does an incoming req see
system.mem_ctrls1.rdQLenPdf::4                   6183                       # What read queue length does an incoming req see
system.mem_ctrls1.rdQLenPdf::5                   2463                       # What read queue length does an incoming req see
system.mem_ctrls1.rdQLenPdf::6                    932                       # What read queue length does an incoming req see
system.mem_ctrls1.rdQLenPdf::7                    379                       # What read queue length does an incoming req see
system.mem_ctrls1.rdQLenPdf::8                    192                       # What read queue length does an incoming req see
system.mem_ctrls1.rdQLenPdf::9                    127                       # What read queue length does an incoming req see
system.mem_ctrls1.rdQLenPdf::10                   113                       # What read queue length does an incoming req see
system.mem_ctrls1.rdQLenPdf::11                   104                       # What read queue length does an incoming req see
system.mem_ctrls1.rdQLenPdf::12                    91                       # What read queue length does an incoming req see
system.mem_ctrls1.rdQLenPdf::13                   121                       # What read queue length does an incoming req see
system.mem_ctrls1.rdQLenPdf::14                   151                       # What read queue length does an incoming req see
system.mem_ctrls1.rdQLenPdf::15                   139                       # What read queue length does an incoming req see
system.mem_ctrls1.rdQLenPdf::16                   159                       # What read queue length does an incoming req see
system.mem_ctrls1.rdQLenPdf::17                   160                       # What read queue length does an incoming req see
system.mem_ctrls1.rdQLenPdf::18                   137                       # What read queue length does an incoming req see
system.mem_ctrls1.rdQLenPdf::19                    78                       # What read queue length does an incoming req see
system.mem_ctrls1.rdQLenPdf::20                    65                       # What read queue length does an incoming req see
system.mem_ctrls1.rdQLenPdf::21                    61                       # What read queue length does an incoming req see
system.mem_ctrls1.rdQLenPdf::22                    53                       # What read queue length does an incoming req see
system.mem_ctrls1.rdQLenPdf::23                    42                       # What read queue length does an incoming req see
system.mem_ctrls1.rdQLenPdf::24                    28                       # What read queue length does an incoming req see
system.mem_ctrls1.rdQLenPdf::25                    21                       # What read queue length does an incoming req see
system.mem_ctrls1.rdQLenPdf::26                    17                       # What read queue length does an incoming req see
system.mem_ctrls1.rdQLenPdf::27                    24                       # What read queue length does an incoming req see
system.mem_ctrls1.rdQLenPdf::28                    31                       # What read queue length does an incoming req see
system.mem_ctrls1.rdQLenPdf::29                    41                       # What read queue length does an incoming req see
system.mem_ctrls1.rdQLenPdf::30                    61                       # What read queue length does an incoming req see
system.mem_ctrls1.rdQLenPdf::31                  1934                       # What read queue length does an incoming req see
system.mem_ctrls1.wrQLenPdf::0                  11334                       # What write queue length does an incoming req see
system.mem_ctrls1.wrQLenPdf::1                  11602                       # What write queue length does an incoming req see
system.mem_ctrls1.wrQLenPdf::2                  11677                       # What write queue length does an incoming req see
system.mem_ctrls1.wrQLenPdf::3                  11656                       # What write queue length does an incoming req see
system.mem_ctrls1.wrQLenPdf::4                  11617                       # What write queue length does an incoming req see
system.mem_ctrls1.wrQLenPdf::5                    472                       # What write queue length does an incoming req see
system.mem_ctrls1.wrQLenPdf::6                    402                       # What write queue length does an incoming req see
system.mem_ctrls1.wrQLenPdf::7                   1237                       # What write queue length does an incoming req see
system.mem_ctrls1.bytesPerActivate::samples       106594                       # Bytes accessed per row activation
system.mem_ctrls1.bytesPerActivate::mean   165.907424                       # Bytes accessed per row activation
system.mem_ctrls1.bytesPerActivate::gmean   110.891539                       # Bytes accessed per row activation
system.mem_ctrls1.bytesPerActivate::stdev   198.777862                       # Bytes accessed per row activation
system.mem_ctrls1.bytesPerActivate::0-127        64943     60.93%     60.93% # Bytes accessed per row activation
system.mem_ctrls1.bytesPerActivate::128-255        17916     16.81%     77.73% # Bytes accessed per row activation
system.mem_ctrls1.bytesPerActivate::256-383        14362     13.47%     91.21% # Bytes accessed per row activation
system.mem_ctrls1.bytesPerActivate::384-511         2374      2.23%     93.43% # Bytes accessed per row activation
system.mem_ctrls1.bytesPerActivate::512-639         1654      1.55%     94.99% # Bytes accessed per row activation
system.mem_ctrls1.bytesPerActivate::640-767         1222      1.15%     96.13% # Bytes accessed per row activation
system.mem_ctrls1.bytesPerActivate::768-895          976      0.92%     97.05% # Bytes accessed per row activation
system.mem_ctrls1.bytesPerActivate::896-1023          992      0.93%     97.98% # Bytes accessed per row activation
system.mem_ctrls1.bytesPerActivate::1024-1151         2155      2.02%    100.00% # Bytes accessed per row activation
system.mem_ctrls1.bytesPerActivate::total       106594                       # Bytes accessed per row activation
system.mem_ctrls1.rdPerTurnAround::samples        11429                       # Reads before turning the bus around for writes
system.mem_ctrls1.rdPerTurnAround::mean     18.927378                       # Reads before turning the bus around for writes
system.mem_ctrls1.rdPerTurnAround::stdev    91.778496                       # Reads before turning the bus around for writes
system.mem_ctrls1.rdPerTurnAround::0-127        11158     97.63%     97.63% # Reads before turning the bus around for writes
system.mem_ctrls1.rdPerTurnAround::128-255          140      1.22%     98.85% # Reads before turning the bus around for writes
system.mem_ctrls1.rdPerTurnAround::256-383           47      0.41%     99.27% # Reads before turning the bus around for writes
system.mem_ctrls1.rdPerTurnAround::384-511           16      0.14%     99.41% # Reads before turning the bus around for writes
system.mem_ctrls1.rdPerTurnAround::512-639           14      0.12%     99.53% # Reads before turning the bus around for writes
system.mem_ctrls1.rdPerTurnAround::640-767            8      0.07%     99.60% # Reads before turning the bus around for writes
system.mem_ctrls1.rdPerTurnAround::768-895           12      0.10%     99.70% # Reads before turning the bus around for writes
system.mem_ctrls1.rdPerTurnAround::896-1023           12      0.10%     99.81% # Reads before turning the bus around for writes
system.mem_ctrls1.rdPerTurnAround::1024-1151            5      0.04%     99.85% # Reads before turning the bus around for writes
system.mem_ctrls1.rdPerTurnAround::1152-1279            6      0.05%     99.90% # Reads before turning the bus around for writes
system.mem_ctrls1.rdPerTurnAround::1280-1407            1      0.01%     99.91% # Reads before turning the bus around for writes
system.mem_ctrls1.rdPerTurnAround::1408-1535            1      0.01%     99.92% # Reads before turning the bus around for writes
system.mem_ctrls1.rdPerTurnAround::1536-1663            3      0.03%     99.95% # Reads before turning the bus around for writes
system.mem_ctrls1.rdPerTurnAround::1792-1919            2      0.02%     99.97% # Reads before turning the bus around for writes
system.mem_ctrls1.rdPerTurnAround::1920-2047            1      0.01%     99.97% # Reads before turning the bus around for writes
system.mem_ctrls1.rdPerTurnAround::2304-2431            1      0.01%     99.98% # Reads before turning the bus around for writes
system.mem_ctrls1.rdPerTurnAround::2560-2687            1      0.01%     99.99% # Reads before turning the bus around for writes
system.mem_ctrls1.rdPerTurnAround::2816-2943            1      0.01%    100.00% # Reads before turning the bus around for writes
system.mem_ctrls1.rdPerTurnAround::total        11429                       # Reads before turning the bus around for writes
system.mem_ctrls1.wrPerTurnAround::samples        11429                       # Writes before turning the bus around for reads
system.mem_ctrls1.wrPerTurnAround::mean      5.249541                       # Writes before turning the bus around for reads
system.mem_ctrls1.wrPerTurnAround::gmean     5.160950                       # Writes before turning the bus around for reads
system.mem_ctrls1.wrPerTurnAround::stdev     1.373416                       # Writes before turning the bus around for reads
system.mem_ctrls1.wrPerTurnAround::4-7          11142     97.49%     97.49% # Writes before turning the bus around for reads
system.mem_ctrls1.wrPerTurnAround::8-11           109      0.95%     98.44% # Writes before turning the bus around for reads
system.mem_ctrls1.wrPerTurnAround::12-15           49      0.43%     98.87% # Writes before turning the bus around for reads
system.mem_ctrls1.wrPerTurnAround::16-19          129      1.13%    100.00% # Writes before turning the bus around for reads
system.mem_ctrls1.wrPerTurnAround::total        11429                       # Writes before turning the bus around for reads
system.mem_ctrls1.totQLat                  5098677438                       # Total ticks spent queuing
system.mem_ctrls1.totMemAccLat             9154977438                       # Total ticks spent from burst creation until serviced by the DRAM
system.mem_ctrls1.totBusLat                1081680000                       # Total ticks spent in databus transfers
system.mem_ctrls1.avgQLat                    23568.33                       # Average queueing delay per DRAM burst
system.mem_ctrls1.avgBusLat                   5000.00                       # Average bus latency per DRAM burst
system.mem_ctrls1.avgMemAccLat               42318.33                       # Average memory access latency per DRAM burst
system.mem_ctrls1.avgRdBW                      251.11                       # Average DRAM read bandwidth in MiByte/s
system.mem_ctrls1.avgWrBW                       69.64                       # Average achieved write bandwidth in MiByte/s
system.mem_ctrls1.avgRdBWSys                   251.14                       # Average system read bandwidth in MiByte/s
system.mem_ctrls1.avgWrBWSys                    69.64                       # Average system write bandwidth in MiByte/s
system.mem_ctrls1.peakBW                     12800.00                       # Theoretical peak bandwidth in MiByte/s
system.mem_ctrls1.busUtil                        2.51                       # Data bus utilization in percentage
system.mem_ctrls1.busUtilRead                    1.96                       # Data bus utilization in percentage for reads
system.mem_ctrls1.busUtilWrite                   0.54                       # Data bus utilization in percentage for writes
system.mem_ctrls1.avgRdQLen                      1.16                       # Average read queue length when enqueuing
system.mem_ctrls1.avgWrQLen                      2.91                       # Average write queue length when enqueuing
system.mem_ctrls1.readRowHits                  132440                       # Number of row buffer hits during reads
system.mem_ctrls1.writeRowHits                  37294                       # Number of row buffer hits during writes
system.mem_ctrls1.readRowHitRate                61.22                       # Row buffer hit rate for reads
system.mem_ctrls1.writeRowHitRate               62.16                       # Row buffer hit rate for writes
system.mem_ctrls1.avgGap                    199509.05                       # Average gap between requests
system.mem_ctrls1.pageHitRate                   61.42                       # Row buffer hit rate, read and write combined
system.mem_ctrls1.memoryStateTime::IDLE   11208145500                       # Time in different power states
system.mem_ctrls1.memoryStateTime::REF     1841060000                       # Time in different power states
system.mem_ctrls1.memoryStateTime::PRE_PDN            0                       # Time in different power states
system.mem_ctrls1.memoryStateTime::ACT    42085504500                       # Time in different power states
system.mem_ctrls1.memoryStateTime::ACT_PDN            0                       # Time in different power states
system.mem_ctrls1.actEnergy::0              404051760                       # Energy for activate commands per rank (pJ)
system.mem_ctrls1.actEnergy::1              401791320                       # Energy for activate commands per rank (pJ)
system.mem_ctrls1.preEnergy::0              220464750                       # Energy for precharge commands per rank (pJ)
system.mem_ctrls1.preEnergy::1              219231375                       # Energy for precharge commands per rank (pJ)
system.mem_ctrls1.readEnergy::0             851377800                       # Energy for read commands per rank (pJ)
system.mem_ctrls1.readEnergy::1             835965000                       # Energy for read commands per rank (pJ)
system.mem_ctrls1.writeEnergy::0            197490960                       # Energy for write commands per rank (pJ)
system.mem_ctrls1.writeEnergy::1            191289600                       # Energy for write commands per rank (pJ)
system.mem_ctrls1.refreshEnergy::0         3601113360                       # Energy for refresh commands per rank (pJ)
system.mem_ctrls1.refreshEnergy::1         3601113360                       # Energy for refresh commands per rank (pJ)
system.mem_ctrls1.actBackEnergy::0        22207888845                       # Energy for active background per rank (pJ)
system.mem_ctrls1.actBackEnergy::1        21420209835                       # Energy for active background per rank (pJ)
system.mem_ctrls1.preBackEnergy::0        13600213500                       # Energy for precharge background per rank (pJ)
system.mem_ctrls1.preBackEnergy::1        14291160000                       # Energy for precharge background per rank (pJ)
system.mem_ctrls1.totalEnergy::0          41082600975                       # Total energy per rank (pJ)
system.mem_ctrls1.totalEnergy::1          40960760490                       # Total energy per rank (pJ)
system.mem_ctrls1.averagePower::0          745.131537                       # Core power per rank (mW)
system.mem_ctrls1.averagePower::1          742.921668                       # Core power per rank (mW)
system.mem_ctrls2.bytes_read::ruby.dir_cntrl2     13845760                       # Number of bytes read from this memory
system.mem_ctrls2.bytes_read::total          13845760                       # Number of bytes read from this memory
system.mem_ctrls2.bytes_written::ruby.dir_cntrl2      3840448                       # Number of bytes written to this memory
system.mem_ctrls2.bytes_written::total        3840448                       # Number of bytes written to this memory
system.mem_ctrls2.num_reads::ruby.dir_cntrl2       216340                       # Number of read requests responded to by this memory
system.mem_ctrls2.num_reads::total             216340                       # Number of read requests responded to by this memory
system.mem_ctrls2.num_writes::ruby.dir_cntrl2        60007                       # Number of write requests responded to by this memory
system.mem_ctrls2.num_writes::total             60007                       # Number of write requests responded to by this memory
system.mem_ctrls2.bw_read::ruby.dir_cntrl2    251116170                       # Total read bandwidth from this memory (bytes/s)
system.mem_ctrls2.bw_read::total            251116170                       # Total read bandwidth from this memory (bytes/s)
system.mem_ctrls2.bw_write::ruby.dir_cntrl2     69652991                       # Write bandwidth from this memory (bytes/s)
system.mem_ctrls2.bw_write::total            69652991                       # Write bandwidth from this memory (bytes/s)
system.mem_ctrls2.bw_total::ruby.dir_cntrl2    320769161                       # Total bandwidth to/from this memory (bytes/s)
system.mem_ctrls2.bw_total::total           320769161                       # Total bandwidth to/from this memory (bytes/s)
system.mem_ctrls2.readReqs                     216340                       # Number of read requests accepted
system.mem_ctrls2.writeReqs                     60007                       # Number of write requests accepted
system.mem_ctrls2.readBursts                   216340                       # Number of DRAM read bursts, including those serviced by the write queue
system.mem_ctrls2.writeBursts                   60007                       # Number of DRAM write bursts, including those merged in the write queue
system.mem_ctrls2.bytesReadDRAM              13844992                       # Total number of bytes read from DRAM
system.mem_ctrls2.bytesReadWrQ                    768                       # Total number of bytes read from write queue
system.mem_ctrls2.bytesWritten                3840320                       # Total number of bytes written to DRAM
system.mem_ctrls2.bytesReadSys               13845760                       # Total read bytes from the system interface side
system.mem_ctrls2.bytesWrittenSys             3840448                       # Total written bytes from the system interface side
system.mem_ctrls2.servicedByWrQ                    12                       # Number of DRAM read bursts serviced by the write queue
system.mem_ctrls2.mergedWrBursts                    0                       # Number of DRAM write bursts merged with an existing one
system.mem_ctrls2.neitherReadNorWriteReqs            0                       # Number of requests that are neither read nor write
system.mem_ctrls2.perBankRdBursts::0            13292                       # Per bank write bursts
system.mem_ctrls2.perBankRdBursts::1            13817                       # Per bank write bursts
system.mem_ctrls2.perBankRdBursts::2            13489                       # Per bank write bursts
system.mem_ctrls2.perBankRdBursts::3            13918                       # Per bank write bursts
system.mem_ctrls2.perBankRdBursts::4            13542                       # Per bank write bursts
system.mem_ctrls2.perBankRdBursts::5            14105                       # Per bank write bursts
system.mem_ctrls2.perBankRdBursts::6            13487                       # Per bank write bursts
system.mem_ctrls2.perBankRdBursts::7            13489                       # Per bank write bursts
system.mem_ctrls2.perBankRdBursts::8            13377                       # Per bank write bursts
system.mem_ctrls2.perBankRdBursts::9            13706                       # Per bank write bursts
system.mem_ctrls2.perBankRdBursts::10           13423                       # Per bank write bursts
system.mem_ctrls2.perBankRdBursts::11           13699                       # Per bank write bursts
system.mem_ctrls2.perBankRdBursts::12           13205                       # Per bank write bursts
system.mem_ctrls2.perBankRdBursts::13           13065                       # Per bank write bursts
system.mem_ctrls2.perBankRdBursts::14           13297                       # Per bank write bursts
system.mem_ctrls2.perBankRdBursts::15           13417                       # Per bank write bursts
system.mem_ctrls2.perBankWrBursts::0             3679                       # Per bank write bursts
system.mem_ctrls2.perBankWrBursts::1             3776                       # Per bank write bursts
system.mem_ctrls2.perBankWrBursts::2             3759                       # Per bank write bursts
system.mem_ctrls2.perBankWrBursts::3             3995                       # Per bank write bursts
system.mem_ctrls2.perBankWrBursts::4             3770                       # Per bank write bursts
system.mem_ctrls2.perBankWrBursts::5             3910                       # Per bank write bursts
system.mem_ctrls2.perBankWrBursts::6             3805                       # Per bank write bursts
system.mem_ctrls2.perBankWrBursts::7             3781                       # Per bank write bursts
system.mem_ctrls2.perBankWrBursts::8             3667                       # Per bank write bursts
system.mem_ctrls2.perBankWrBursts::9             3908                       # Per bank write bursts
system.mem_ctrls2.perBankWrBursts::10            3671                       # Per bank write bursts
system.mem_ctrls2.perBankWrBursts::11            3599                       # Per bank write bursts
system.mem_ctrls2.perBankWrBursts::12            3575                       # Per bank write bursts
system.mem_ctrls2.perBankWrBursts::13            3592                       # Per bank write bursts
system.mem_ctrls2.perBankWrBursts::14            3802                       # Per bank write bursts
system.mem_ctrls2.perBankWrBursts::15            3716                       # Per bank write bursts
system.mem_ctrls2.numRdRetry                     2235                       # Number of times read queue was full causing retry
system.mem_ctrls2.numWrRetry                      842                       # Number of times write queue was full causing retry
system.mem_ctrls2.totGap                  55136153500                       # Total gap between requests
system.mem_ctrls2.readPktSize::0                    0                       # Read request sizes (log2)
system.mem_ctrls2.readPktSize::1                    0                       # Read request sizes (log2)
system.mem_ctrls2.readPktSize::2                    0                       # Read request sizes (log2)
system.mem_ctrls2.readPktSize::3                    0                       # Read request sizes (log2)
system.mem_ctrls2.readPktSize::4                    0                       # Read request sizes (log2)
system.mem_ctrls2.readPktSize::5                    0                       # Read request sizes (log2)
system.mem_ctrls2.readPktSize::6               216340                       # Read request sizes (log2)
system.mem_ctrls2.writePktSize::0                   0                       # Write request sizes (log2)
system.mem_ctrls2.writePktSize::1                   0                       # Write request sizes (log2)
system.mem_ctrls2.writePktSize::2                   0                       # Write request sizes (log2)
system.mem_ctrls2.writePktSize::3                   0                       # Write request sizes (log2)
system.mem_ctrls2.writePktSize::4                   0                       # Write request sizes (log2)
system.mem_ctrls2.writePktSize::5                   0                       # Write request sizes (log2)
system.mem_ctrls2.writePktSize::6               60007                       # Write request sizes (log2)
system.mem_ctrls2.rdQLenPdf::0                 110770                       # What read queue length does an incoming req see
system.mem_ctrls2.rdQLenPdf::1                  48374                       # What read queue length does an incoming req see
system.mem_ctrls2.rdQLenPdf::2                  28863                       # What read queue length does an incoming req see
system.mem_ctrls2.rdQLenPdf::3                  14512                       # What read queue length does an incoming req see
system.mem_ctrls2.rdQLenPdf::4                   6166                       # What read queue length does an incoming req see
system.mem_ctrls2.rdQLenPdf::5                   2410                       # What read queue length does an incoming req see
system.mem_ctrls2.rdQLenPdf::6                    910                       # What read queue length does an incoming req see
system.mem_ctrls2.rdQLenPdf::7                    336                       # What read queue length does an incoming req see
system.mem_ctrls2.rdQLenPdf::8                    175                       # What read queue length does an incoming req see
system.mem_ctrls2.rdQLenPdf::9                    121                       # What read queue length does an incoming req see
system.mem_ctrls2.rdQLenPdf::10                   116                       # What read queue length does an incoming req see
system.mem_ctrls2.rdQLenPdf::11                   122                       # What read queue length does an incoming req see
system.mem_ctrls2.rdQLenPdf::12                   186                       # What read queue length does an incoming req see
system.mem_ctrls2.rdQLenPdf::13                   156                       # What read queue length does an incoming req see
system.mem_ctrls2.rdQLenPdf::14                   143                       # What read queue length does an incoming req see
system.mem_ctrls2.rdQLenPdf::15                    89                       # What read queue length does an incoming req see
system.mem_ctrls2.rdQLenPdf::16                    55                       # What read queue length does an incoming req see
system.mem_ctrls2.rdQLenPdf::17                    56                       # What read queue length does an incoming req see
system.mem_ctrls2.rdQLenPdf::18                    45                       # What read queue length does an incoming req see
system.mem_ctrls2.rdQLenPdf::19                    48                       # What read queue length does an incoming req see
system.mem_ctrls2.rdQLenPdf::20                    34                       # What read queue length does an incoming req see
system.mem_ctrls2.rdQLenPdf::21                    25                       # What read queue length does an incoming req see
system.mem_ctrls2.rdQLenPdf::22                    24                       # What read queue length does an incoming req see
system.mem_ctrls2.rdQLenPdf::23                    21                       # What read queue length does an incoming req see
system.mem_ctrls2.rdQLenPdf::24                    18                       # What read queue length does an incoming req see
system.mem_ctrls2.rdQLenPdf::25                    17                       # What read queue length does an incoming req see
system.mem_ctrls2.rdQLenPdf::26                    13                       # What read queue length does an incoming req see
system.mem_ctrls2.rdQLenPdf::27                    14                       # What read queue length does an incoming req see
system.mem_ctrls2.rdQLenPdf::28                    22                       # What read queue length does an incoming req see
system.mem_ctrls2.rdQLenPdf::29                    30                       # What read queue length does an incoming req see
system.mem_ctrls2.rdQLenPdf::30                    39                       # What read queue length does an incoming req see
system.mem_ctrls2.rdQLenPdf::31                  2418                       # What read queue length does an incoming req see
system.mem_ctrls2.wrQLenPdf::0                  11351                       # What write queue length does an incoming req see
system.mem_ctrls2.wrQLenPdf::1                  11594                       # What write queue length does an incoming req see
system.mem_ctrls2.wrQLenPdf::2                  11622                       # What write queue length does an incoming req see
system.mem_ctrls2.wrQLenPdf::3                  11605                       # What write queue length does an incoming req see
system.mem_ctrls2.wrQLenPdf::4                  11597                       # What write queue length does an incoming req see
system.mem_ctrls2.wrQLenPdf::5                    401                       # What write queue length does an incoming req see
system.mem_ctrls2.wrQLenPdf::6                    391                       # What write queue length does an incoming req see
system.mem_ctrls2.wrQLenPdf::7                   1446                       # What write queue length does an incoming req see
system.mem_ctrls2.bytesPerActivate::samples       106486                       # Bytes accessed per row activation
system.mem_ctrls2.bytesPerActivate::mean   166.075691                       # Bytes accessed per row activation
system.mem_ctrls2.bytesPerActivate::gmean   110.857878                       # Bytes accessed per row activation
system.mem_ctrls2.bytesPerActivate::stdev   199.235889                       # Bytes accessed per row activation
system.mem_ctrls2.bytesPerActivate::0-127        65065     61.10%     61.10% # Bytes accessed per row activation
system.mem_ctrls2.bytesPerActivate::128-255        17480     16.42%     77.52% # Bytes accessed per row activation
system.mem_ctrls2.bytesPerActivate::256-383        14517     13.63%     91.15% # Bytes accessed per row activation
system.mem_ctrls2.bytesPerActivate::384-511         2420      2.27%     93.42% # Bytes accessed per row activation
system.mem_ctrls2.bytesPerActivate::512-639         1673      1.57%     94.99% # Bytes accessed per row activation
system.mem_ctrls2.bytesPerActivate::640-767         1181      1.11%     96.10% # Bytes accessed per row activation
system.mem_ctrls2.bytesPerActivate::768-895          965      0.91%     97.01% # Bytes accessed per row activation
system.mem_ctrls2.bytesPerActivate::896-1023          997      0.94%     97.95% # Bytes accessed per row activation
system.mem_ctrls2.bytesPerActivate::1024-1151         2188      2.05%    100.00% # Bytes accessed per row activation
system.mem_ctrls2.bytesPerActivate::total       106486                       # Bytes accessed per row activation
system.mem_ctrls2.rdPerTurnAround::samples        11436                       # Reads before turning the bus around for writes
system.mem_ctrls2.rdPerTurnAround::mean     18.753235                       # Reads before turning the bus around for writes
system.mem_ctrls2.rdPerTurnAround::stdev    89.968287                       # Reads before turning the bus around for writes
system.mem_ctrls2.rdPerTurnAround::0-127        11173     97.70%     97.70% # Reads before turning the bus around for writes
system.mem_ctrls2.rdPerTurnAround::128-255          138      1.21%     98.91% # Reads before turning the bus around for writes
system.mem_ctrls2.rdPerTurnAround::256-383           39      0.34%     99.25% # Reads before turning the bus around for writes
system.mem_ctrls2.rdPerTurnAround::384-511           18      0.16%     99.41% # Reads before turning the bus around for writes
system.mem_ctrls2.rdPerTurnAround::512-639           16      0.14%     99.55% # Reads before turning the bus around for writes
system.mem_ctrls2.rdPerTurnAround::640-767           10      0.09%     99.63% # Reads before turning the bus around for writes
system.mem_ctrls2.rdPerTurnAround::768-895            7      0.06%     99.69% # Reads before turning the bus around for writes
system.mem_ctrls2.rdPerTurnAround::896-1023           11      0.10%     99.79% # Reads before turning the bus around for writes
system.mem_ctrls2.rdPerTurnAround::1024-1151            7      0.06%     99.85% # Reads before turning the bus around for writes
system.mem_ctrls2.rdPerTurnAround::1152-1279            6      0.05%     99.90% # Reads before turning the bus around for writes
system.mem_ctrls2.rdPerTurnAround::1280-1407            3      0.03%     99.93% # Reads before turning the bus around for writes
system.mem_ctrls2.rdPerTurnAround::1408-1535            2      0.02%     99.95% # Reads before turning the bus around for writes
system.mem_ctrls2.rdPerTurnAround::1536-1663            2      0.02%     99.97% # Reads before turning the bus around for writes
system.mem_ctrls2.rdPerTurnAround::1792-1919            1      0.01%     99.97% # Reads before turning the bus around for writes
system.mem_ctrls2.rdPerTurnAround::2304-2431            1      0.01%     99.98% # Reads before turning the bus around for writes
system.mem_ctrls2.rdPerTurnAround::2560-2687            1      0.01%     99.99% # Reads before turning the bus around for writes
system.mem_ctrls2.rdPerTurnAround::2816-2943            1      0.01%    100.00% # Reads before turning the bus around for writes
system.mem_ctrls2.rdPerTurnAround::total        11436                       # Reads before turning the bus around for writes
system.mem_ctrls2.wrPerTurnAround::samples        11436                       # Writes before turning the bus around for reads
system.mem_ctrls2.wrPerTurnAround::mean      5.247027                       # Writes before turning the bus around for reads
system.mem_ctrls2.wrPerTurnAround::gmean     5.156614                       # Writes before turning the bus around for reads
system.mem_ctrls2.wrPerTurnAround::stdev     1.394948                       # Writes before turning the bus around for reads
system.mem_ctrls2.wrPerTurnAround::4-7          11153     97.53%     97.53% # Writes before turning the bus around for reads
system.mem_ctrls2.wrPerTurnAround::8-11            93      0.81%     98.34% # Writes before turning the bus around for reads
system.mem_ctrls2.wrPerTurnAround::12-15           57      0.50%     98.84% # Writes before turning the bus around for reads
system.mem_ctrls2.wrPerTurnAround::16-19          133      1.16%    100.00% # Writes before turning the bus around for reads
system.mem_ctrls2.wrPerTurnAround::total        11436                       # Writes before turning the bus around for reads
system.mem_ctrls2.totQLat                  5203215435                       # Total ticks spent queuing
system.mem_ctrls2.totMemAccLat             9259365435                       # Total ticks spent from burst creation until serviced by the DRAM
system.mem_ctrls2.totBusLat                1081640000                       # Total ticks spent in databus transfers
system.mem_ctrls2.avgQLat                    24052.44                       # Average queueing delay per DRAM burst
system.mem_ctrls2.avgBusLat                   5000.00                       # Average bus latency per DRAM burst
system.mem_ctrls2.avgMemAccLat               42802.44                       # Average memory access latency per DRAM burst
system.mem_ctrls2.avgRdBW                      251.10                       # Average DRAM read bandwidth in MiByte/s
system.mem_ctrls2.avgWrBW                       69.65                       # Average achieved write bandwidth in MiByte/s
system.mem_ctrls2.avgRdBWSys                   251.12                       # Average system read bandwidth in MiByte/s
system.mem_ctrls2.avgWrBWSys                    69.65                       # Average system write bandwidth in MiByte/s
system.mem_ctrls2.peakBW                     12800.00                       # Theoretical peak bandwidth in MiByte/s
system.mem_ctrls2.busUtil                        2.51                       # Data bus utilization in percentage
system.mem_ctrls2.busUtilRead                    1.96                       # Data bus utilization in percentage for reads
system.mem_ctrls2.busUtilWrite                   0.54                       # Data bus utilization in percentage for writes
system.mem_ctrls2.avgRdQLen                      1.16                       # Average read queue length when enqueuing
system.mem_ctrls2.avgWrQLen                      2.99                       # Average write queue length when enqueuing
system.mem_ctrls2.readRowHits                  132559                       # Number of row buffer hits during reads
system.mem_ctrls2.writeRowHits                  37281                       # Number of row buffer hits during writes
system.mem_ctrls2.readRowHitRate                61.28                       # Row buffer hit rate for reads
system.mem_ctrls2.writeRowHitRate               62.13                       # Row buffer hit rate for writes
system.mem_ctrls2.avgGap                    199517.83                       # Average gap between requests
system.mem_ctrls2.pageHitRate                   61.46                       # Row buffer hit rate, read and write combined
system.mem_ctrls2.memoryStateTime::IDLE   11113681500                       # Time in different power states
system.mem_ctrls2.memoryStateTime::REF     1841060000                       # Time in different power states
system.mem_ctrls2.memoryStateTime::PRE_PDN            0                       # Time in different power states
system.mem_ctrls2.memoryStateTime::ACT    42179968500                       # Time in different power states
system.mem_ctrls2.memoryStateTime::ACT_PDN            0                       # Time in different power states
system.mem_ctrls2.actEnergy::0              404407080                       # Energy for activate commands per rank (pJ)
system.mem_ctrls2.actEnergy::1              400619520                       # Energy for activate commands per rank (pJ)
system.mem_ctrls2.preEnergy::0              220658625                       # Energy for precharge commands per rank (pJ)
system.mem_ctrls2.preEnergy::1              218592000                       # Energy for precharge commands per rank (pJ)
system.mem_ctrls2.readEnergy::0             851245200                       # Energy for read commands per rank (pJ)
system.mem_ctrls2.readEnergy::1             836035200                       # Energy for read commands per rank (pJ)
system.mem_ctrls2.writeEnergy::0            197478000                       # Energy for write commands per rank (pJ)
system.mem_ctrls2.writeEnergy::1            191354400                       # Energy for write commands per rank (pJ)
system.mem_ctrls2.refreshEnergy::0         3601113360                       # Energy for refresh commands per rank (pJ)
system.mem_ctrls2.refreshEnergy::1         3601113360                       # Energy for refresh commands per rank (pJ)
system.mem_ctrls2.actBackEnergy::0        22183653870                       # Energy for active background per rank (pJ)
system.mem_ctrls2.actBackEnergy::1        21568045320                       # Energy for active background per rank (pJ)
system.mem_ctrls2.preBackEnergy::0        13621472250                       # Energy for precharge background per rank (pJ)
system.mem_ctrls2.preBackEnergy::1        14161479750                       # Energy for precharge background per rank (pJ)
system.mem_ctrls2.totalEnergy::0          41080028385                       # Total energy per rank (pJ)
system.mem_ctrls2.totalEnergy::1          40977239550                       # Total energy per rank (pJ)
system.mem_ctrls2.averagePower::0          745.084877                       # Core power per rank (mW)
system.mem_ctrls2.averagePower::1          743.220555                       # Core power per rank (mW)
system.mem_ctrls3.bytes_read::ruby.dir_cntrl3     13844032                       # Number of bytes read from this memory
system.mem_ctrls3.bytes_read::total          13844032                       # Number of bytes read from this memory
system.mem_ctrls3.bytes_written::ruby.dir_cntrl3      3837440                       # Number of bytes written to this memory
system.mem_ctrls3.bytes_written::total        3837440                       # Number of bytes written to this memory
system.mem_ctrls3.num_reads::ruby.dir_cntrl3       216313                       # Number of read requests responded to by this memory
system.mem_ctrls3.num_reads::total             216313                       # Number of read requests responded to by this memory
system.mem_ctrls3.num_writes::ruby.dir_cntrl3        59960                       # Number of write requests responded to by this memory
system.mem_ctrls3.num_writes::total             59960                       # Number of write requests responded to by this memory
system.mem_ctrls3.bw_read::ruby.dir_cntrl3    251084830                       # Total read bandwidth from this memory (bytes/s)
system.mem_ctrls3.bw_read::total            251084830                       # Total read bandwidth from this memory (bytes/s)
system.mem_ctrls3.bw_write::ruby.dir_cntrl3     69598436                       # Write bandwidth from this memory (bytes/s)
system.mem_ctrls3.bw_write::total            69598436                       # Write bandwidth from this memory (bytes/s)
system.mem_ctrls3.bw_total::ruby.dir_cntrl3    320683265                       # Total bandwidth to/from this memory (bytes/s)
system.mem_ctrls3.bw_total::total           320683265                       # Total bandwidth to/from this memory (bytes/s)
system.mem_ctrls3.readReqs                     216314                       # Number of read requests accepted
system.mem_ctrls3.writeReqs                     59960                       # Number of write requests accepted
system.mem_ctrls3.readBursts                   216314                       # Number of DRAM read bursts, including those serviced by the write queue
system.mem_ctrls3.writeBursts                   59960                       # Number of DRAM write bursts, including those merged in the write queue
system.mem_ctrls3.bytesReadDRAM              13843392                       # Total number of bytes read from DRAM
system.mem_ctrls3.bytesReadWrQ                    704                       # Total number of bytes read from write queue
system.mem_ctrls3.bytesWritten                3837376                       # Total number of bytes written to DRAM
system.mem_ctrls3.bytesReadSys               13844096                       # Total read bytes from the system interface side
system.mem_ctrls3.bytesWrittenSys             3837440                       # Total written bytes from the system interface side
system.mem_ctrls3.servicedByWrQ                    11                       # Number of DRAM read bursts serviced by the write queue
system.mem_ctrls3.mergedWrBursts                    0                       # Number of DRAM write bursts merged with an existing one
system.mem_ctrls3.neitherReadNorWriteReqs            0                       # Number of requests that are neither read nor write
system.mem_ctrls3.perBankRdBursts::0            13267                       # Per bank write bursts
system.mem_ctrls3.perBankRdBursts::1            13799                       # Per bank write bursts
system.mem_ctrls3.perBankRdBursts::2            13437                       # Per bank write bursts
system.mem_ctrls3.perBankRdBursts::3            13898                       # Per bank write bursts
system.mem_ctrls3.perBankRdBursts::4            13489                       # Per bank write bursts
system.mem_ctrls3.perBankRdBursts::5            14265                       # Per bank write bursts
system.mem_ctrls3.perBankRdBursts::6            13509                       # Per bank write bursts
system.mem_ctrls3.perBankRdBursts::7            13484                       # Per bank write bursts
system.mem_ctrls3.perBankRdBursts::8            13382                       # Per bank write bursts
system.mem_ctrls3.perBankRdBursts::9            13702                       # Per bank write bursts
system.mem_ctrls3.perBankRdBursts::10           13450                       # Per bank write bursts
system.mem_ctrls3.perBankRdBursts::11           13654                       # Per bank write bursts
system.mem_ctrls3.perBankRdBursts::12           13200                       # Per bank write bursts
system.mem_ctrls3.perBankRdBursts::13           13056                       # Per bank write bursts
system.mem_ctrls3.perBankRdBursts::14           13311                       # Per bank write bursts
system.mem_ctrls3.perBankRdBursts::15           13400                       # Per bank write bursts
system.mem_ctrls3.perBankWrBursts::0             3684                       # Per bank write bursts
system.mem_ctrls3.perBankWrBursts::1             3769                       # Per bank write bursts
system.mem_ctrls3.perBankWrBursts::2             3753                       # Per bank write bursts
system.mem_ctrls3.perBankWrBursts::3             3977                       # Per bank write bursts
system.mem_ctrls3.perBankWrBursts::4             3768                       # Per bank write bursts
system.mem_ctrls3.perBankWrBursts::5             3905                       # Per bank write bursts
system.mem_ctrls3.perBankWrBursts::6             3802                       # Per bank write bursts
system.mem_ctrls3.perBankWrBursts::7             3769                       # Per bank write bursts
system.mem_ctrls3.perBankWrBursts::8             3664                       # Per bank write bursts
system.mem_ctrls3.perBankWrBursts::9             3909                       # Per bank write bursts
system.mem_ctrls3.perBankWrBursts::10            3669                       # Per bank write bursts
system.mem_ctrls3.perBankWrBursts::11            3613                       # Per bank write bursts
system.mem_ctrls3.perBankWrBursts::12            3573                       # Per bank write bursts
system.mem_ctrls3.perBankWrBursts::13            3599                       # Per bank write bursts
[...]
system.ruby.L2Cache_Controller.IM.Mem_Data::total       190163                      
system.ruby.L2Cache_Controller.SS_MB.Exclusive_Unblock |         203     80.56%     80.56% |           6      2.38%     82.94% |           3      1.19%     84.13% |           6      2.38%     86.51% |           0      0.00%     86.51% |           1      0.40%     86.90% |           1      0.40%     87.30% |           0      0.00%     87.30% |           0      0.00%     87.30% |           1      0.40%     87.70% |           0      0.00%     87.70% |           0      0.00%     87.70% |           5      1.98%     89.68% |           0      0.00%     89.68% |           2      0.79%     90.48% |           1      0.40%     90.87% |           0      0.00%     90.87% |           0      0.00%     90.87% |          10      3.97%     94.84% |           2      0.79%     95.63% |           0      0.00%     95.63% |           0      0.00%     95.63% |           0      0.00%     95.63% |           0      0.00%     95.63% |           1      0.40%     96.03% |           0      0.00%     96.03% |           2      0.79%     96.83% |           1      0.40%     97.22% |           4      1.59%     98.81% |           1      0.40%     99.21% |           1      0.40%     99.60% |           1      0.40%    100.00%
system.ruby.L2Cache_Controller.SS_MB.Exclusive_Unblock::total          252                      
system.ruby.L2Cache_Controller.MT_MB.L1_GETS |           1     14.29%     14.29% |           0      0.00%     14.29% |           0      0.00%     14.29% |           0      0.00%     14.29% |           0      0.00%     14.29% |           0      0.00%     14.29% |           0      0.00%     14.29% |           0      0.00%     14.29% |           0      0.00%     14.29% |           0      0.00%     14.29% |           0      0.00%     14.29% |           0      0.00%     14.29% |           0      0.00%     14.29% |           0      0.00%     14.29% |           0      0.00%     14.29% |           0      0.00%     14.29% |           0      0.00%     14.29% |           3     42.86%     57.14% |           3     42.86%    100.00% |           0      0.00%    100.00% |           0      0.00%    100.00% |           0      0.00%    100.00% |           0      0.00%    100.00% |           0      0.00%    100.00% |           0      0.00%    100.00% |           0      0.00%    100.00% |           0      0.00%    100.00% |           0      0.00%    100.00% |           0      0.00%    100.00% |           0      0.00%    100.00% |           0      0.00%    100.00% |           0      0.00%    100.00%
system.ruby.L2Cache_Controller.MT_MB.L1_GETS::total            7                      
system.ruby.L2Cache_Controller.MT_MB.Exclusive_Unblock |       77578      7.09%      7.09% |       33347      3.05%     10.14% |       32633      2.98%     13.13% |       32832      3.00%     16.13% |       33065      3.02%     19.15% |       31987      2.92%     22.08% |       31917      2.92%     24.99% |       31648      2.89%     27.89% |       33906      3.10%     30.99% |       32317      2.95%     33.94% |       34257      3.13%     37.07% |       33111      3.03%     40.10% |       32650      2.99%     43.09% |       31704      2.90%     45.99% |       31735      2.90%     48.89% |       31662      2.89%     51.78% |       34229      3.13%     54.91% |       32078      2.93%     57.84% |       32923      3.01%     60.85% |       32527      2.97%     63.83% |       32989      3.02%     66.85% |       32435      2.97%     69.81% |       32972      3.01%     72.83% |       31994      2.93%     75.75% |       33601      3.07%     78.82% |       32300      2.95%     81.78% |       32798      3.00%     84.77% |       31793      2.91%     87.68% |       33118      3.03%     90.71% |       31864      2.91%     93.62% |       34233      3.13%     96.75% |       35510      3.25%    100.00%
system.ruby.L2Cache_Controller.MT_MB.Exclusive_Unblock::total      1093713                      
system.ruby.L2Cache_Controller.MT_IIB.L1_GETS |           1      6.67%      6.67% |           5     33.33%     40.00% |           2     13.33%     53.33% |           0      0.00%     53.33% |           0      0.00%     53.33% |           0      0.00%     53.33% |           0      0.00%     53.33% |           0      0.00%     53.33% |           0      0.00%     53.33% |           0      0.00%     53.33% |           0      0.00%     53.33% |           0      0.00%     53.33% |           0      0.00%     53.33% |           0      0.00%     53.33% |           0      0.00%     53.33% |           0      0.00%     53.33% |           0      0.00%     53.33% |           2     13.33%     66.67% |           2     13.33%     80.00% |           3     20.00%    100.00% |           0      0.00%    100.00% |           0      0.00%    100.00% |           0      0.00%    100.00% |           0      0.00%    100.00% |           0      0.00%    100.00% |           0      0.00%    100.00% |           0      0.00%    100.00% |           0      0.00%    100.00% |           0      0.00%    100.00% |           0      0.00%    100.00% |           0      0.00%    100.00% |           0      0.00%    100.00%
system.ruby.L2Cache_Controller.MT_IIB.L1_GETS::total           15                      
system.ruby.L2Cache_Controller.MT_IIB.WB_Data |         219      6.03%      6.03% |         112      3.08%      9.11% |         110      3.03%     12.14% |         106      2.92%     15.06% |         110      3.03%     18.09% |         110      3.03%     21.12% |         110      3.03%     24.15% |         110      3.03%     27.18% |         110      3.03%     30.20% |         110      3.03%     33.23% |         110      3.03%     36.26% |         108      2.97%     39.23% |         114      3.14%     42.37% |         110      3.03%     45.40% |         110      3.03%     48.43% |         110      3.03%     51.46% |         110      3.03%     54.49% |         110      3.03%     57.52% |         111      3.06%     60.57% |         111      3.06%     63.63% |         110      3.03%     66.66% |         110      3.03%     69.69% |         112      3.08%     72.77% |         110      3.03%     75.80% |         110      3.03%     78.83% |         110      3.03%     81.86% |         110      3.03%     84.88% |         110      3.03%     87.91% |         110      3.03%     90.94% |         109      3.00%     93.94% |         110      3.03%     96.97% |         110      3.03%    100.00%
system.ruby.L2Cache_Controller.MT_IIB.WB_Data::total         3632                      
system.ruby.L2Cache_Controller.MT_IIB.WB_Data_clean |         594     96.90%     96.90% |           3      0.49%     97.39% |           2      0.33%     97.72% |           1      0.16%     97.88% |           0      0.00%     97.88% |           0      0.00%     97.88% |           0      0.00%     97.88% |           0      0.00%     97.88% |           0      0.00%     97.88% |           0      0.00%     97.88% |           0      0.00%     97.88% |           0      0.00%     97.88% |           0      0.00%     97.88% |           0      0.00%     97.88% |           1      0.16%     98.04% |           0      0.00%     98.04% |           1      0.16%     98.21% |           4      0.65%     98.86% |           4      0.65%     99.51% |           3      0.49%    100.00% |           0      0.00%    100.00% |           0      0.00%    100.00% |           0      0.00%    100.00% |           0      0.00%    100.00% |           0      0.00%    100.00% |           0      0.00%    100.00% |           0      0.00%    100.00% |           0      0.00%    100.00% |           0      0.00%    100.00% |           0      0.00%    100.00% |           0      0.00%    100.00% |           0      0.00%    100.00%
system.ruby.L2Cache_Controller.MT_IIB.WB_Data_clean::total          613                      
system.ruby.L2Cache_Controller.MT_IIB.Unblock |           3     23.08%     23.08% |           0      0.00%     23.08% |           0      0.00%     23.08% |           4     30.77%     53.85% |           0      0.00%     53.85% |           0      0.00%     53.85% |           0      0.00%     53.85% |           0      0.00%     53.85% |           0      0.00%     53.85% |           0      0.00%     53.85% |           0      0.00%     53.85% |           2     15.38%     69.23% |           0      0.00%     69.23% |           0      0.00%     69.23% |           0      0.00%     69.23% |           0      0.00%     69.23% |           0      0.00%     69.23% |           0      0.00%     69.23% |           0      0.00%     69.23% |           0      0.00%     69.23% |           0      0.00%     69.23% |           0      0.00%     69.23% |           0      0.00%     69.23% |           0      0.00%     69.23% |           0      0.00%     69.23% |           1      7.69%     76.92% |           0      0.00%     76.92% |           0      0.00%     76.92% |           2     15.38%     92.31% |           1      7.69%    100.00% |           0      0.00%    100.00% |           0      0.00%    100.00%
system.ruby.L2Cache_Controller.MT_IIB.Unblock::total           13                      
system.ruby.L2Cache_Controller.MT_IB.WB_Data |           1      9.09%      9.09% |           0      0.00%      9.09% |           0      0.00%      9.09% |           4     36.36%     45.45% |           0      0.00%     45.45% |           0      0.00%     45.45% |           0      0.00%     45.45% |           0      0.00%     45.45% |           0      0.00%     45.45% |           0      0.00%     45.45% |           0      0.00%     45.45% |           2     18.18%     63.64% |           0      0.00%     63.64% |           0      0.00%     63.64% |           0      0.00%     63.64% |           0      0.00%     63.64% |           0      0.00%     63.64% |           0      0.00%     63.64% |           0      0.00%     63.64% |           0      0.00%     63.64% |           0      0.00%     63.64% |           0      0.00%     63.64% |           0      0.00%     63.64% |           0      0.00%     63.64% |           0      0.00%     63.64% |           1      9.09%     72.73% |           0      0.00%     72.73% |           0      0.00%     72.73% |           2     18.18%     90.91% |           1      9.09%    100.00% |           0      0.00%    100.00% |           0      0.00%    100.00%
system.ruby.L2Cache_Controller.MT_IB.WB_Data::total           11                      
system.ruby.L2Cache_Controller.MT_IB.WB_Data_clean |           2    100.00%    100.00% |           0      0.00%    100.00% |           0      0.00%    100.00% |           0      0.00%    100.00% |           0      0.00%    100.00% |           0      0.00%    100.00% |           0      0.00%    100.00% |           0      0.00%    100.00% |           0      0.00%    100.00% |           0      0.00%    100.00% |           0      0.00%    100.00% |           0      0.00%    100.00% |           0      0.00%    100.00% |           0      0.00%    100.00% |           0      0.00%    100.00% |           0      0.00%    100.00% |           0      0.00%    100.00% |           0      0.00%    100.00% |           0      0.00%    100.00% |           0      0.00%    100.00% |           0      0.00%    100.00% |           0      0.00%    100.00% |           0      0.00%    100.00% |           0      0.00%    100.00% |           0      0.00%    100.00% |           0      0.00%    100.00% |           0      0.00%    100.00% |           0      0.00%    100.00% |           0      0.00%    100.00% |           0      0.00%    100.00% |           0      0.00%    100.00% |           0      0.00%    100.00%
system.ruby.L2Cache_Controller.MT_IB.WB_Data_clean::total            2                      
system.ruby.L2Cache_Controller.MT_SB.L1_GETS |           0      0.00%      0.00% |           0      0.00%      0.00% |           1    100.00%    100.00% |           0      0.00%    100.00% |           0      0.00%    100.00% |           0      0.00%    100.00% |           0      0.00%    100.00% |           0      0.00%    100.00% |           0      0.00%    100.00% |           0      0.00%    100.00% |           0      0.00%    100.00% |           0      0.00%    100.00% |           0      0.00%    100.00% |           0      0.00%    100.00% |           0      0.00%    100.00% |           0      0.00%    100.00% |           0      0.00%    100.00% |           0      0.00%    100.00% |           0      0.00%    100.00% |           0      0.00%    100.00% |           0      0.00%    100.00% |           0      0.00%    100.00% |           0      0.00%    100.00% |           0      0.00%    100.00% |           0      0.00%    100.00% |           0      0.00%    100.00% |           0      0.00%    100.00% |           0      0.00%    100.00% |           0      0.00%    100.00% |           0      0.00%    100.00% |           0      0.00%    100.00% |           0      0.00%    100.00%
system.ruby.L2Cache_Controller.MT_SB.L1_GETS::total            1                      
system.ruby.L2Cache_Controller.MT_SB.Unblock |         813     19.15%     19.15% |         115      2.71%     21.86% |         112      2.64%     24.50% |         107      2.52%     27.02% |         110      2.59%     29.61% |         110      2.59%     32.20% |         110      2.59%     34.79% |         110      2.59%     37.39% |         110      2.59%     39.98% |         110      2.59%     42.57% |         110      2.59%     45.16% |         108      2.54%     47.70% |         114      2.69%     50.39% |         110      2.59%     52.98% |         111      2.61%     55.59% |         110      2.59%     58.19% |         111      2.61%     60.80% |         114      2.69%     63.49% |         115      2.71%     66.20% |         114      2.69%     68.88% |         110      2.59%     71.47% |         110      2.59%     74.06% |         112      2.64%     76.70% |         110      2.59%     79.29% |         110      2.59%     81.88% |         110      2.59%     84.48% |         110      2.59%     87.07% |         110      2.59%     89.66% |         110      2.59%     92.25% |         109      2.57%     94.82% |         110      2.59%     97.41% |         110      2.59%    100.00%
system.ruby.L2Cache_Controller.MT_SB.Unblock::total         4245                      
system.ruby.SimicsNetworkPortInterface_Controller.MessageSend |       75512      4.34%      4.34% |      870128     50.00%     54.34% |       56600      3.25%     57.59% |       50654      2.91%     60.50% |       49952      2.87%     63.37% |       50753      2.92%     66.29% |       49765      2.86%     69.15% |       50649      2.91%     72.06% |       48388      2.78%     74.84% |       48421      2.78%     77.62% |       48352      2.78%     80.40% |       48742      2.80%     83.20% |       49537      2.85%     86.05% |       48437      2.78%     88.83% |       47919      2.75%     91.58% |       48128      2.77%     94.35% |       48433      2.78%     97.13% |       49886      2.87%    100.00% |           0      0.00%    100.00% |           0      0.00%    100.00% |           0      0.00%    100.00% |           0      0.00%    100.00% |           0      0.00%    100.00% |           0      0.00%    100.00% |           0      0.00%    100.00% |           0      0.00%    100.00% |           0      0.00%    100.00% |           0      0.00%    100.00% |           0      0.00%    100.00% |           0      0.00%    100.00% |           0      0.00%    100.00% |           0      0.00%    100.00%
system.ruby.SimicsNetworkPortInterface_Controller.MessageSend::total      1740256                      
system.ruby.SimicsNetworkPortInterface_Controller.MessageRecv |       75512      4.34%      4.34% |      870128     50.00%     54.34% |       56600      3.25%     57.59% |       50654      2.91%     60.50% |       49952      2.87%     63.37% |       50753      2.92%     66.29% |       49765      2.86%     69.15% |       50649      2.91%     72.06% |       48388      2.78%     74.84% |       48421      2.78%     77.62% |       48352      2.78%     80.40% |       48742      2.80%     83.20% |       49537      2.85%     86.05% |       48437      2.78%     88.83% |       47919      2.75%     91.58% |       48128      2.77%     94.35% |       48433      2.78%     97.13% |       49886      2.87%    100.00% |           0      0.00%    100.00% |           0      0.00%    100.00% |           0      0.00%    100.00% |           0      0.00%    100.00% |           0      0.00%    100.00% |           0      0.00%    100.00% |           0      0.00%    100.00% |           0      0.00%    100.00% |           0      0.00%    100.00% |           0      0.00%    100.00% |           0      0.00%    100.00% |           0      0.00%    100.00% |           0      0.00%    100.00% |           0      0.00%    100.00%
system.ruby.SimicsNetworkPortInterface_Controller.MessageRecv::total      1740256                      
system.ruby.SimicsNetworkPortInterface_Controller.A.MessageSend |       75512      4.34%      4.34% |      870128     50.00%     54.34% |       56600      3.25%     57.59% |       50654      2.91%     60.50% |       49952      2.87%     63.37% |       50753      2.92%     66.29% |       49765      2.86%     69.15% |       50649      2.91%     72.06% |       48388      2.78%     74.84% |       48421      2.78%     77.62% |       48352      2.78%     80.40% |       48742      2.80%     83.20% |       49537      2.85%     86.05% |       48437      2.78%     88.83% |       47919      2.75%     91.58% |       48128      2.77%     94.35% |       48433      2.78%     97.13% |       49886      2.87%    100.00% |           0      0.00%    100.00% |           0      0.00%    100.00% |           0      0.00%    100.00% |           0      0.00%    100.00% |           0      0.00%    100.00% |           0      0.00%    100.00% |           0      0.00%    100.00% |           0      0.00%    100.00% |           0      0.00%    100.00% |           0      0.00%    100.00% |           0      0.00%    100.00% |           0      0.00%    100.00% |           0      0.00%    100.00% |           0      0.00%    100.00%
system.ruby.SimicsNetworkPortInterface_Controller.A.MessageSend::total      1740256                      
system.ruby.SimicsNetworkPortInterface_Controller.A.MessageRecv |       75512      4.34%      4.34% |      870128     50.00%     54.34% |       56600      3.25%     57.59% |       50654      2.91%     60.50% |       49952      2.87%     63.37% |       50753      2.92%     66.29% |       49765      2.86%     69.15% |       50649      2.91%     72.06% |       48388      2.78%     74.84% |       48421      2.78%     77.62% |       48352      2.78%     80.40% |       48742      2.80%     83.20% |       49537      2.85%     86.05% |       48437      2.78%     88.83% |       47919      2.75%     91.58% |       48128      2.77%     94.35% |       48433      2.78%     97.13% |       49886      2.87%    100.00% |           0      0.00%    100.00% |           0      0.00%    100.00% |           0      0.00%    100.00% |           0      0.00%    100.00% |           0      0.00%    100.00% |           0      0.00%    100.00% |           0      0.00%    100.00% |           0      0.00%    100.00% |           0      0.00%    100.00% |           0      0.00%    100.00% |           0      0.00%    100.00% |           0      0.00%    100.00% |           0      0.00%    100.00% |           0      0.00%    100.00%
system.ruby.SimicsNetworkPortInterface_Controller.A.MessageRecv::total      1740256                      
system.switch_cpus.kern.inst.arm                    0                       # number of arm instructions executed
system.switch_cpus.kern.inst.quiesce                0                       # number of quiesce instructions executed

---------- End Simulation Statistics   ----------
