
---------- Begin Simulation Statistics ----------
sim_seconds                                  0.093753                       # Number of seconds simulated
sim_ticks                                 93752588000                       # Number of ticks simulated
final_tick                               5269920666500                       # Number of ticks from beginning of simulation (restored from checkpoints and never reset)
sim_freq                                 1000000000000                       # Frequency of simulated ticks
host_inst_rate                                  24587                       # Simulator instruction rate (inst/s)
host_op_rate                                    43307                       # Simulator op (including micro ops) rate (op/s)
host_tick_rate                               53487175                       # Simulator tick rate (ticks/s)
host_mem_usage                                6050272                       # Number of bytes of host memory used
host_seconds                                  1752.81                       # Real time elapsed on the host
sim_insts                                    43095416                       # Number of instructions simulated
sim_ops                                      75908051                       # Number of ops (including micro ops) simulated
system.voltage_domain.voltage                       1                       # Voltage in Volts
system.clk_domain.clock                           500                       # Clock period in ticks
system.mem_ctrls0.bytes_read::ruby.dir_cntrl0     21127808                       # Number of bytes read from this memory
system.mem_ctrls0.bytes_read::total          21127808                       # Number of bytes read from this memory
system.mem_ctrls0.bytes_written::ruby.dir_cntrl0     11913856                       # Number of bytes written to this memory
system.mem_ctrls0.bytes_written::total       11913856                       # Number of bytes written to this memory
system.mem_ctrls0.num_reads::ruby.dir_cntrl0       330122                       # Number of read requests responded to by this memory
system.mem_ctrls0.num_reads::total             330122                       # Number of read requests responded to by this memory
system.mem_ctrls0.num_writes::ruby.dir_cntrl0       186154                       # Number of write requests responded to by this memory
system.mem_ctrls0.num_writes::total            186154                       # Number of write requests responded to by this memory
system.mem_ctrls0.bw_read::ruby.dir_cntrl0    225357064                       # Total read bandwidth from this memory (bytes/s)
system.mem_ctrls0.bw_read::total            225357064                       # Total read bandwidth from this memory (bytes/s)
system.mem_ctrls0.bw_write::ruby.dir_cntrl0    127077623                       # Write bandwidth from this memory (bytes/s)
system.mem_ctrls0.bw_write::total           127077623                       # Write bandwidth from this memory (bytes/s)
system.mem_ctrls0.bw_total::ruby.dir_cntrl0    352434687                       # Total bandwidth to/from this memory (bytes/s)
system.mem_ctrls0.bw_total::total           352434687                       # Total bandwidth to/from this memory (bytes/s)
system.mem_ctrls0.readReqs                     330122                       # Number of read requests accepted
system.mem_ctrls0.writeReqs                    186154                       # Number of write requests accepted
system.mem_ctrls0.readBursts                   330122                       # Number of DRAM read bursts, including those serviced by the write queue
system.mem_ctrls0.writeBursts                  186154                       # Number of DRAM write bursts, including those merged in the write queue
system.mem_ctrls0.bytesReadDRAM              21125440                       # Total number of bytes read from DRAM
system.mem_ctrls0.bytesReadWrQ                   2368                       # Total number of bytes read from write queue
system.mem_ctrls0.bytesWritten               11913600                       # Total number of bytes written to DRAM
system.mem_ctrls0.bytesReadSys               21127808                       # Total read bytes from the system interface side
system.mem_ctrls0.bytesWrittenSys            11913856                       # Total written bytes from the system interface side
system.mem_ctrls0.servicedByWrQ                    37                       # Number of DRAM read bursts serviced by the write queue
system.mem_ctrls0.mergedWrBursts                    0                       # Number of DRAM write bursts merged with an existing one
system.mem_ctrls0.neitherReadNorWriteReqs            0                       # Number of requests that are neither read nor write
system.mem_ctrls0.perBankRdBursts::0            20355                       # Per bank write bursts
system.mem_ctrls0.perBankRdBursts::1            21010                       # Per bank write bursts
system.mem_ctrls0.perBankRdBursts::2            20507                       # Per bank write bursts
system.mem_ctrls0.perBankRdBursts::3            20871                       # Per bank write bursts
system.mem_ctrls0.perBankRdBursts::4            20526                       # Per bank write bursts
system.mem_ctrls0.perBankRdBursts::5            21074                       # Per bank write bursts
system.mem_ctrls0.perBankRdBursts::6            20624                       # Per bank write bursts
system.mem_ctrls0.perBankRdBursts::7            20703                       # Per bank write bursts
system.mem_ctrls0.perBankRdBursts::8            20682                       # Per bank write bursts
system.mem_ctrls0.perBankRdBursts::9            20907                       # Per bank write bursts
system.mem_ctrls0.perBankRdBursts::10           20596                       # Per bank write bursts
system.mem_ctrls0.perBankRdBursts::11           20987                       # Per bank write bursts
system.mem_ctrls0.perBankRdBursts::12           20246                       # Per bank write bursts
system.mem_ctrls0.perBankRdBursts::13           20152                       # Per bank write bursts
system.mem_ctrls0.perBankRdBursts::14           20449                       # Per bank write bursts
system.mem_ctrls0.perBankRdBursts::15           20396                       # Per bank write bursts
system.mem_ctrls0.perBankWrBursts::0            11506                       # Per bank write bursts
system.mem_ctrls0.perBankWrBursts::1            11660                       # Per bank write bursts
system.mem_ctrls0.perBankWrBursts::2            11674                       # Per bank write bursts
system.mem_ctrls0.perBankWrBursts::3            11649                       # Per bank write bursts
system.mem_ctrls0.perBankWrBursts::4            11611                       # Per bank write bursts
system.mem_ctrls0.perBankWrBursts::5            11927                       # Per bank write bursts
system.mem_ctrls0.perBankWrBursts::6            11559                       # Per bank write bursts
system.mem_ctrls0.perBankWrBursts::7            11680                       # Per bank write bursts
system.mem_ctrls0.perBankWrBursts::8            11901                       # Per bank write bursts
system.mem_ctrls0.perBankWrBursts::9            11725                       # Per bank write bursts
system.mem_ctrls0.perBankWrBursts::10           11530                       # Per bank write bursts
system.mem_ctrls0.perBankWrBursts::11           11712                       # Per bank write bursts
system.mem_ctrls0.perBankWrBursts::12           11346                       # Per bank write bursts
system.mem_ctrls0.perBankWrBursts::13           11313                       # Per bank write bursts
system.mem_ctrls0.perBankWrBursts::14           11754                       # Per bank write bursts
system.mem_ctrls0.perBankWrBursts::15           11603                       # Per bank write bursts
system.mem_ctrls0.numRdRetry                     2309                       # Number of times read queue was full causing retry
system.mem_ctrls0.numWrRetry                     1648                       # Number of times write queue was full causing retry
system.mem_ctrls0.totGap                  93752017500                       # Total gap between requests
system.mem_ctrls0.readPktSize::0                    0                       # Read request sizes (log2)
system.mem_ctrls0.readPktSize::1                    0                       # Read request sizes (log2)
system.mem_ctrls0.readPktSize::2                    0                       # Read request sizes (log2)
system.mem_ctrls0.readPktSize::3                    0                       # Read request sizes (log2)
system.mem_ctrls0.readPktSize::4                    0                       # Read request sizes (log2)
system.mem_ctrls0.readPktSize::5                    0                       # Read request sizes (log2)
system.mem_ctrls0.readPktSize::6               330122                       # Read request sizes (log2)
system.mem_ctrls0.writePktSize::0                   0                       # Write request sizes (log2)
system.mem_ctrls0.writePktSize::1                   0                       # Write request sizes (log2)
system.mem_ctrls0.writePktSize::2                   0                       # Write request sizes (log2)
system.mem_ctrls0.writePktSize::3                   0                       # Write request sizes (log2)
system.mem_ctrls0.writePktSize::4                   0                       # Write request sizes (log2)
system.mem_ctrls0.writePktSize::5                   0                       # Write request sizes (log2)
system.mem_ctrls0.writePktSize::6              186154                       # Write request sizes (log2)
system.mem_ctrls0.rdQLenPdf::0                 163633                       # What read queue length does an incoming req see
system.mem_ctrls0.rdQLenPdf::1                  44990                       # What read queue length does an incoming req see
system.mem_ctrls0.rdQLenPdf::2                  32631                       # What read queue length does an incoming req see
system.mem_ctrls0.rdQLenPdf::3                  22386                       # What read queue length does an incoming req see
system.mem_ctrls0.rdQLenPdf::4                  16145                       # What read queue length does an incoming req see
system.mem_ctrls0.rdQLenPdf::5                  11686                       # What read queue length does an incoming req see
system.mem_ctrls0.rdQLenPdf::6                   8523                       # What read queue length does an incoming req see
system.mem_ctrls0.rdQLenPdf::7                   6320                       # What read queue length does an incoming req see
system.mem_ctrls0.rdQLenPdf::8                   4693                       # What read queue length does an incoming req see
system.mem_ctrls0.rdQLenPdf::9                   3481                       # What read queue length does an incoming req see
system.mem_ctrls0.rdQLenPdf::10                  2601                       # What read queue length does an incoming req see
system.mem_ctrls0.rdQLenPdf::11                  2021                       # What read queue length does an incoming req see
system.mem_ctrls0.rdQLenPdf::12                  1538                       # What read queue length does an incoming req see
system.mem_ctrls0.rdQLenPdf::13                  1193                       # What read queue length does an incoming req see
system.mem_ctrls0.rdQLenPdf::14                   964                       # What read queue length does an incoming req see
system.mem_ctrls0.rdQLenPdf::15                   737                       # What read queue length does an incoming req see
system.mem_ctrls0.rdQLenPdf::16                   606                       # What read queue length does an incoming req see
system.mem_ctrls0.rdQLenPdf::17                   520                       # What read queue length does an incoming req see
system.mem_ctrls0.rdQLenPdf::18                   416                       # What read queue length does an incoming req see
system.mem_ctrls0.rdQLenPdf::19                   329                       # What read queue length does an incoming req see
system.mem_ctrls0.rdQLenPdf::20                   294                       # What read queue length does an incoming req see
system.mem_ctrls0.rdQLenPdf::21                   249                       # What read queue length does an incoming req see
system.mem_ctrls0.rdQLenPdf::22                   235                       # What read queue length does an incoming req see
system.mem_ctrls0.rdQLenPdf::23                   205                       # What read queue length does an incoming req see
system.mem_ctrls0.rdQLenPdf::24                   168                       # What read queue length does an incoming req see
system.mem_ctrls0.rdQLenPdf::25                   154                       # What read queue length does an incoming req see
system.mem_ctrls0.rdQLenPdf::26                   146                       # What read queue length does an incoming req see
system.mem_ctrls0.rdQLenPdf::27                   152                       # What read queue length does an incoming req see
system.mem_ctrls0.rdQLenPdf::28                   166                       # What read queue length does an incoming req see
system.mem_ctrls0.rdQLenPdf::29                   146                       # What read queue length does an incoming req see
system.mem_ctrls0.rdQLenPdf::30                   165                       # What read queue length does an incoming req see
system.mem_ctrls0.rdQLenPdf::31                  2592                       # What read queue length does an incoming req see
system.mem_ctrls0.wrQLenPdf::0                  33824                       # What write queue length does an incoming req see
system.mem_ctrls0.wrQLenPdf::1                  36163                       # What write queue length does an incoming req see
system.mem_ctrls0.wrQLenPdf::2                  36575                       # What write queue length does an incoming req see
system.mem_ctrls0.wrQLenPdf::3                  36340                       # What write queue length does an incoming req see
system.mem_ctrls0.wrQLenPdf::4                  35751                       # What write queue length does an incoming req see
system.mem_ctrls0.wrQLenPdf::5                   2731                       # What write queue length does an incoming req see
system.mem_ctrls0.wrQLenPdf::6                   1838                       # What write queue length does an incoming req see
system.mem_ctrls0.wrQLenPdf::7                   2932                       # What write queue length does an incoming req see
system.mem_ctrls0.bytesPerActivate::samples       158993                       # Bytes accessed per row activation
system.mem_ctrls0.bytesPerActivate::mean   207.796620                       # Bytes accessed per row activation
system.mem_ctrls0.bytesPerActivate::gmean   156.368666                       # Bytes accessed per row activation
system.mem_ctrls0.bytesPerActivate::stdev   172.265984                       # Bytes accessed per row activation
system.mem_ctrls0.bytesPerActivate::0-127        51856     32.62%     32.62% # Bytes accessed per row activation
system.mem_ctrls0.bytesPerActivate::128-255        47620     29.95%     62.57% # Bytes accessed per row activation
system.mem_ctrls0.bytesPerActivate::256-383        43415     27.31%     89.87% # Bytes accessed per row activation
system.mem_ctrls0.bytesPerActivate::384-511         6447      4.05%     93.93% # Bytes accessed per row activation
system.mem_ctrls0.bytesPerActivate::512-639         3818      2.40%     96.33% # Bytes accessed per row activation
system.mem_ctrls0.bytesPerActivate::640-767         2092      1.32%     97.64% # Bytes accessed per row activation
system.mem_ctrls0.bytesPerActivate::768-895         1266      0.80%     98.44% # Bytes accessed per row activation
system.mem_ctrls0.bytesPerActivate::896-1023          858      0.54%     98.98% # Bytes accessed per row activation
system.mem_ctrls0.bytesPerActivate::1024-1151         1621      1.02%    100.00% # Bytes accessed per row activation
system.mem_ctrls0.bytesPerActivate::total       158993                       # Bytes accessed per row activation
system.mem_ctrls0.rdPerTurnAround::samples        34029                       # Reads before turning the bus around for writes
system.mem_ctrls0.rdPerTurnAround::mean      9.699844                       # Reads before turning the bus around for writes
system.mem_ctrls0.rdPerTurnAround::stdev    23.495919                       # Reads before turning the bus around for writes
system.mem_ctrls0.rdPerTurnAround::0-127        34022     99.98%     99.98% # Reads before turning the bus around for writes
system.mem_ctrls0.rdPerTurnAround::128-255            6      0.02%    100.00% # Reads before turning the bus around for writes
system.mem_ctrls0.rdPerTurnAround::3968-4095            1      0.00%    100.00% # Reads before turning the bus around for writes
system.mem_ctrls0.rdPerTurnAround::total        34029                       # Reads before turning the bus around for writes
system.mem_ctrls0.wrPerTurnAround::samples        34029                       # Writes before turning the bus around for reads
system.mem_ctrls0.wrPerTurnAround::mean      5.470334                       # Writes before turning the bus around for reads
system.mem_ctrls0.wrPerTurnAround::gmean     5.353094                       # Writes before turning the bus around for reads
system.mem_ctrls0.wrPerTurnAround::stdev     1.469582                       # Writes before turning the bus around for reads
system.mem_ctrls0.wrPerTurnAround::4-7          32121     94.39%     94.39% # Writes before turning the bus around for reads
system.mem_ctrls0.wrPerTurnAround::8-11          1370      4.03%     98.42% # Writes before turning the bus around for reads
system.mem_ctrls0.wrPerTurnAround::12-15          275      0.81%     99.23% # Writes before turning the bus around for reads
system.mem_ctrls0.wrPerTurnAround::16-19          263      0.77%    100.00% # Writes before turning the bus around for reads
system.mem_ctrls0.wrPerTurnAround::total        34029                       # Writes before turning the bus around for reads
system.mem_ctrls0.totQLat                 11519432934                       # Total ticks spent queuing
system.mem_ctrls0.totMemAccLat            17708526684                       # Total ticks spent from burst creation until serviced by the DRAM
system.mem_ctrls0.totBusLat                1650425000                       # Total ticks spent in databus transfers
system.mem_ctrls0.avgQLat                    34898.38                       # Average queueing delay per DRAM burst
system.mem_ctrls0.avgBusLat                   5000.00                       # Average bus latency per DRAM burst
system.mem_ctrls0.avgMemAccLat               53648.38                       # Average memory access latency per DRAM burst
system.mem_ctrls0.avgRdBW                      225.33                       # Average DRAM read bandwidth in MiByte/s
system.mem_ctrls0.avgWrBW                      127.07                       # Average achieved write bandwidth in MiByte/s
system.mem_ctrls0.avgRdBWSys                   225.36                       # Average system read bandwidth in MiByte/s
system.mem_ctrls0.avgWrBWSys                   127.08                       # Average system write bandwidth in MiByte/s
system.mem_ctrls0.peakBW                     12800.00                       # Theoretical peak bandwidth in MiByte/s
system.mem_ctrls0.busUtil                        2.75                       # Data bus utilization in percentage
system.mem_ctrls0.busUtilRead                    1.76                       # Data bus utilization in percentage for reads
system.mem_ctrls0.busUtilWrite                   0.99                       # Data bus utilization in percentage for writes
system.mem_ctrls0.avgRdQLen                      1.19                       # Average read queue length when enqueuing
system.mem_ctrls0.avgWrQLen                      2.95                       # Average write queue length when enqueuing
system.mem_ctrls0.readRowHits                  246534                       # Number of row buffer hits during reads
system.mem_ctrls0.writeRowHits                 110698                       # Number of row buffer hits during writes
system.mem_ctrls0.readRowHitRate                74.69                       # Row buffer hit rate for reads
system.mem_ctrls0.writeRowHitRate               59.47                       # Row buffer hit rate for writes
system.mem_ctrls0.avgGap                    181592.83                       # Average gap between requests
system.mem_ctrls0.pageHitRate                   69.20                       # Row buffer hit rate, read and write combined
system.mem_ctrls0.memoryStateTime::IDLE   15200011500                       # Time in different power states
system.mem_ctrls0.memoryStateTime::REF     3130400000                       # Time in different power states
system.mem_ctrls0.memoryStateTime::PRE_PDN            0                       # Time in different power states
system.mem_ctrls0.memoryStateTime::ACT    75419076000                       # Time in different power states
system.mem_ctrls0.memoryStateTime::ACT_PDN            0                       # Time in different power states
system.mem_ctrls0.actEnergy::0              607506480                       # Energy for activate commands per rank (pJ)
system.mem_ctrls0.actEnergy::1              594405000                       # Energy for activate commands per rank (pJ)
system.mem_ctrls0.preEnergy::0              331476750                       # Energy for precharge commands per rank (pJ)
system.mem_ctrls0.preEnergy::1              324328125                       # Energy for precharge commands per rank (pJ)
system.mem_ctrls0.readEnergy::0            1292148000                       # Energy for read commands per rank (pJ)
system.mem_ctrls0.readEnergy::1            1282366800                       # Energy for read commands per rank (pJ)
system.mem_ctrls0.writeEnergy::0            604344240                       # Energy for write commands per rank (pJ)
system.mem_ctrls0.writeEnergy::1            601875360                       # Energy for write commands per rank (pJ)
system.mem_ctrls0.refreshEnergy::0         6123062400                       # Energy for refresh commands per rank (pJ)
system.mem_ctrls0.refreshEnergy::1         6123062400                       # Energy for refresh commands per rank (pJ)
system.mem_ctrls0.actBackEnergy::0        39164952510                       # Energy for active background per rank (pJ)
system.mem_ctrls0.actBackEnergy::1        38446233525                       # Energy for active background per rank (pJ)
system.mem_ctrls0.preBackEnergy::0        21892804500                       # Energy for precharge background per rank (pJ)
system.mem_ctrls0.preBackEnergy::1        22523259750                       # Energy for precharge background per rank (pJ)
system.mem_ctrls0.totalEnergy::0          70016294880                       # Total energy per rank (pJ)
system.mem_ctrls0.totalEnergy::1          69895530960                       # Total energy per rank (pJ)
system.mem_ctrls0.averagePower::0          746.866689                       # Core power per rank (mW)
system.mem_ctrls0.averagePower::1          745.578495                       # Core power per rank (mW)
system.mem_ctrls1.bytes_read::ruby.dir_cntrl1     20695232                       # Number of bytes read from this memory
system.mem_ctrls1.bytes_read::total          20695232                       # Number of bytes read from this memory
system.mem_ctrls1.bytes_written::ruby.dir_cntrl1     11493120                       # Number of bytes written to this memory
system.mem_ctrls1.bytes_written::total       11493120                       # Number of bytes written to this memory
system.mem_ctrls1.num_reads::ruby.dir_cntrl1       323363                       # Number of read requests responded to by this memory
system.mem_ctrls1.num_reads::total             323363                       # Number of read requests responded to by this memory
system.mem_ctrls1.num_writes::ruby.dir_cntrl1       179580                       # Number of write requests responded to by this memory
system.mem_ctrls1.num_writes::total            179580                       # Number of write requests responded to by this memory
system.mem_ctrls1.bw_read::ruby.dir_cntrl1    220743048                       # Total read bandwidth from this memory (bytes/s)
system.mem_ctrls1.bw_read::total            220743048                       # Total read bandwidth from this memory (bytes/s)
system.mem_ctrls1.bw_write::ruby.dir_cntrl1    122589896                       # Write bandwidth from this memory (bytes/s)
system.mem_ctrls1.bw_write::total           122589896                       # Write bandwidth from this memory (bytes/s)
system.mem_ctrls1.bw_total::ruby.dir_cntrl1    343332944                       # Total bandwidth to/from this memory (bytes/s)
system.mem_ctrls1.bw_total::total           343332944                       # Total bandwidth to/from this memory (bytes/s)
system.mem_ctrls1.readReqs                     323363                       # Number of read requests accepted
system.mem_ctrls1.writeReqs                    179580                       # Number of write requests accepted
system.mem_ctrls1.readBursts                   323363                       # Number of DRAM read bursts, including those serviced by the write queue
system.mem_ctrls1.writeBursts                  179580                       # Number of DRAM write bursts, including those merged in the write queue
system.mem_ctrls1.bytesReadDRAM              20693312                       # Total number of bytes read from DRAM
system.mem_ctrls1.bytesReadWrQ                   1920                       # Total number of bytes read from write queue
system.mem_ctrls1.bytesWritten               11492928                       # Total number of bytes written to DRAM
system.mem_ctrls1.bytesReadSys               20695232                       # Total read bytes from the system interface side
system.mem_ctrls1.bytesWrittenSys            11493120                       # Total written bytes from the system interface side
system.mem_ctrls1.servicedByWrQ                    30                       # Number of DRAM read bursts serviced by the write queue
system.mem_ctrls1.mergedWrBursts                    0                       # Number of DRAM write bursts merged with an existing one
system.mem_ctrls1.neitherReadNorWriteReqs            0                       # Number of requests that are neither read nor write
system.mem_ctrls1.perBankRdBursts::0            19937                       # Per bank write bursts
system.mem_ctrls1.perBankRdBursts::1            20548                       # Per bank write bursts
system.mem_ctrls1.perBankRdBursts::2            20075                       # Per bank write bursts
system.mem_ctrls1.perBankRdBursts::3            20456                       # Per bank write bursts
system.mem_ctrls1.perBankRdBursts::4            20131                       # Per bank write bursts
system.mem_ctrls1.perBankRdBursts::5            20620                       # Per bank write bursts
system.mem_ctrls1.perBankRdBursts::6            20233                       # Per bank write bursts
system.mem_ctrls1.perBankRdBursts::7            20401                       # Per bank write bursts
system.mem_ctrls1.perBankRdBursts::8            20233                       # Per bank write bursts
system.mem_ctrls1.perBankRdBursts::9            20435                       # Per bank write bursts
system.mem_ctrls1.perBankRdBursts::10           20206                       # Per bank write bursts
system.mem_ctrls1.perBankRdBursts::11           20525                       # Per bank write bursts
system.mem_ctrls1.perBankRdBursts::12           19814                       # Per bank write bursts
system.mem_ctrls1.perBankRdBursts::13           19759                       # Per bank write bursts
system.mem_ctrls1.perBankRdBursts::14           19947                       # Per bank write bursts
system.mem_ctrls1.perBankRdBursts::15           20013                       # Per bank write bursts
system.mem_ctrls1.perBankWrBursts::0            11111                       # Per bank write bursts
system.mem_ctrls1.perBankWrBursts::1            11263                       # Per bank write bursts
system.mem_ctrls1.perBankWrBursts::2            11276                       # Per bank write bursts
system.mem_ctrls1.perBankWrBursts::3            11244                       # Per bank write bursts
system.mem_ctrls1.perBankWrBursts::4            11219                       # Per bank write bursts
system.mem_ctrls1.perBankWrBursts::5            11524                       # Per bank write bursts
system.mem_ctrls1.perBankWrBursts::6            11139                       # Per bank write bursts
system.mem_ctrls1.perBankWrBursts::7            11259                       # Per bank write bursts
system.mem_ctrls1.perBankWrBursts::8            11492                       # Per bank write bursts
system.mem_ctrls1.perBankWrBursts::9            11299                       # Per bank write bursts
system.mem_ctrls1.perBankWrBursts::10           11117                       # Per bank write bursts
system.mem_ctrls1.perBankWrBursts::11           11291                       # Per bank write bursts
system.mem_ctrls1.perBankWrBursts::12           10947                       # Per bank write bursts
system.mem_ctrls1.perBankWrBursts::13           10903                       # Per bank write bursts
system.mem_ctrls1.perBankWrBursts::14           11291                       # Per bank write bursts
system.mem_ctrls1.perBankWrBursts::15           11202                       # Per bank write bursts
system.mem_ctrls1.numRdRetry                     1476                       # Number of times read queue was full causing retry
system.mem_ctrls1.numWrRetry                     1387                       # Number of times write queue was full causing retry
system.mem_ctrls1.totGap                  93751746500                       # Total gap between requests
system.mem_ctrls1.readPktSize::0                    0                       # Read request sizes (log2)
system.mem_ctrls1.readPktSize::1                    0                       # Read request sizes (log2)
system.mem_ctrls1.readPktSize::2                    0                       # Read request sizes (log2)
system.mem_ctrls1.readPktSize::3                    0                       # Read request sizes (log2)
system.mem_ctrls1.readPktSize::4                    0                       # Read request sizes (log2)
system.mem_ctrls1.readPktSize::5                    0                       # Read request sizes (log2)
system.mem_ctrls1.readPktSize::6               323363                       # Read request sizes (log2)
system.mem_ctrls1.writePktSize::0                   0                       # Write request sizes (log2)
system.mem_ctrls1.writePktSize::1                   0                       # Write request sizes (log2)
system.mem_ctrls1.writePktSize::2                   0                       # Write request sizes (log2)
system.mem_ctrls1.writePktSize::3                   0                       # Write request sizes (log2)
system.mem_ctrls1.writePktSize::4                   0                       # Write request sizes (log2)
system.mem_ctrls1.writePktSize::5                   0                       # Write request sizes (log2)
system.mem_ctrls1.writePktSize::6              179580                       # Write request sizes (log2)
system.mem_ctrls1.rdQLenPdf::0                 161004                       # What read queue length does an incoming req see
system.mem_ctrls1.rdQLenPdf::1                  41834                       # What read queue length does an incoming req see
system.mem_ctrls1.rdQLenPdf::2                  31467                       # What read queue length does an incoming req see
system.mem_ctrls1.rdQLenPdf::3                  22453                       # What read queue length does an incoming req see
system.mem_ctrls1.rdQLenPdf::4                  16021                       # What read queue length does an incoming req see
system.mem_ctrls1.rdQLenPdf::5                  11453                       # What read queue length does an incoming req see
system.mem_ctrls1.rdQLenPdf::6                   8547                       # What read queue length does an incoming req see
system.mem_ctrls1.rdQLenPdf::7                   6521                       # What read queue length does an incoming req see
system.mem_ctrls1.rdQLenPdf::8                   4769                       # What read queue length does an incoming req see
system.mem_ctrls1.rdQLenPdf::9                   3555                       # What read queue length does an incoming req see
system.mem_ctrls1.rdQLenPdf::10                  2767                       # What read queue length does an incoming req see
system.mem_ctrls1.rdQLenPdf::11                  2147                       # What read queue length does an incoming req see
system.mem_ctrls1.rdQLenPdf::12                  1680                       # What read queue length does an incoming req see
system.mem_ctrls1.rdQLenPdf::13                  1298                       # What read queue length does an incoming req see
system.mem_ctrls1.rdQLenPdf::14                  1063                       # What read queue length does an incoming req see
system.mem_ctrls1.rdQLenPdf::15                   861                       # What read queue length does an incoming req see
system.mem_ctrls1.rdQLenPdf::16                   724                       # What read queue length does an incoming req see
system.mem_ctrls1.rdQLenPdf::17                   560                       # What read queue length does an incoming req see
system.mem_ctrls1.rdQLenPdf::18                   486                       # What read queue length does an incoming req see
system.mem_ctrls1.rdQLenPdf::19                   403                       # What read queue length does an incoming req see
system.mem_ctrls1.rdQLenPdf::20                   330                       # What read queue length does an incoming req see
system.mem_ctrls1.rdQLenPdf::21                   257                       # What read queue length does an incoming req see
system.mem_ctrls1.rdQLenPdf::22                   230                       # What read queue length does an incoming req see
system.mem_ctrls1.rdQLenPdf::23                   214                       # What read queue length does an incoming req see
system.mem_ctrls1.rdQLenPdf::24                   182                       # What read queue length does an incoming req see
system.mem_ctrls1.rdQLenPdf::25                   171                       # What read queue length does an incoming req see
system.mem_ctrls1.rdQLenPdf::26                   127                       # What read queue length does an incoming req see
system.mem_ctrls1.rdQLenPdf::27                   123                       # What read queue length does an incoming req see
system.mem_ctrls1.rdQLenPdf::28                   112                       # What read queue length does an incoming req see
system.mem_ctrls1.rdQLenPdf::29                   118                       # What read queue length does an incoming req see
system.mem_ctrls1.rdQLenPdf::30                   152                       # What read queue length does an incoming req see
system.mem_ctrls1.rdQLenPdf::31                  1704                       # What read queue length does an incoming req see
system.mem_ctrls1.wrQLenPdf::0                  32634                       # What write queue length does an incoming req see
system.mem_ctrls1.wrQLenPdf::1                  34877                       # What write queue length does an incoming req see
system.mem_ctrls1.wrQLenPdf::2                  35115                       # What write queue length does an incoming req see
system.mem_ctrls1.wrQLenPdf::3                  35162                       # What write queue length does an incoming req see
system.mem_ctrls1.wrQLenPdf::4                  34670                       # What write queue length does an incoming req see
system.mem_ctrls1.wrQLenPdf::5                   2692                       # What write queue length does an incoming req see
system.mem_ctrls1.wrQLenPdf::6                   1902                       # What write queue length does an incoming req see
system.mem_ctrls1.wrQLenPdf::7                   2528                       # What write queue length does an incoming req see
system.mem_ctrls1.bytesPerActivate::samples       150053                       # Bytes accessed per row activation
system.mem_ctrls1.bytesPerActivate::mean   214.494452                       # Bytes accessed per row activation
system.mem_ctrls1.bytesPerActivate::gmean   160.875426                       # Bytes accessed per row activation
system.mem_ctrls1.bytesPerActivate::stdev   176.566352                       # Bytes accessed per row activation
system.mem_ctrls1.bytesPerActivate::0-127        47655     31.76%     31.76% # Bytes accessed per row activation
system.mem_ctrls1.bytesPerActivate::128-255        42659     28.43%     60.19% # Bytes accessed per row activation
system.mem_ctrls1.bytesPerActivate::256-383        43310     28.86%     89.05% # Bytes accessed per row activation
system.mem_ctrls1.bytesPerActivate::384-511         6643      4.43%     93.48% # Bytes accessed per row activation
system.mem_ctrls1.bytesPerActivate::512-639         3845      2.56%     96.04% # Bytes accessed per row activation
system.mem_ctrls1.bytesPerActivate::640-767         2100      1.40%     97.44% # Bytes accessed per row activation
system.mem_ctrls1.bytesPerActivate::768-895         1297      0.86%     98.30% # Bytes accessed per row activation
system.mem_ctrls1.bytesPerActivate::896-1023          889      0.59%     98.90% # Bytes accessed per row activation
system.mem_ctrls1.bytesPerActivate::1024-1151         1655      1.10%    100.00% # Bytes accessed per row activation
system.mem_ctrls1.bytesPerActivate::total       150053                       # Bytes accessed per row activation
system.mem_ctrls1.rdPerTurnAround::samples        32810                       # Reads before turning the bus around for writes
system.mem_ctrls1.rdPerTurnAround::mean      9.853886                       # Reads before turning the bus around for writes
system.mem_ctrls1.rdPerTurnAround::stdev    19.621498                       # Reads before turning the bus around for writes
system.mem_ctrls1.rdPerTurnAround::0-127        32804     99.98%     99.98% # Reads before turning the bus around for writes
system.mem_ctrls1.rdPerTurnAround::128-255            4      0.01%     99.99% # Reads before turning the bus around for writes
system.mem_ctrls1.rdPerTurnAround::1152-1279            1      0.00%    100.00% # Reads before turning the bus around for writes
system.mem_ctrls1.rdPerTurnAround::2816-2943            1      0.00%    100.00% # Reads before turning the bus around for writes
system.mem_ctrls1.rdPerTurnAround::total        32810                       # Reads before turning the bus around for writes
system.mem_ctrls1.wrPerTurnAround::samples        32810                       # Writes before turning the bus around for reads
system.mem_ctrls1.wrPerTurnAround::mean      5.473240                       # Writes before turning the bus around for reads
system.mem_ctrls1.wrPerTurnAround::gmean     5.353876                       # Writes before turning the bus around for reads
system.mem_ctrls1.wrPerTurnAround::stdev     1.476311                       # Writes before turning the bus around for reads
system.mem_ctrls1.wrPerTurnAround::4-7          30822     93.94%     93.94% # Writes before turning the bus around for reads
system.mem_ctrls1.wrPerTurnAround::8-11          1461      4.45%     98.39% # Writes before turning the bus around for reads
system.mem_ctrls1.wrPerTurnAround::12-15          293      0.89%     99.29% # Writes before turning the bus around for reads
system.mem_ctrls1.wrPerTurnAround::16-19          234      0.71%    100.00% # Writes before turning the bus around for reads
system.mem_ctrls1.wrPerTurnAround::total        32810                       # Writes before turning the bus around for reads
system.mem_ctrls1.totQLat                 11003489561                       # Total ticks spent queuing
system.mem_ctrls1.totMemAccLat            17065983311                       # Total ticks spent from burst creation until serviced by the DRAM
system.mem_ctrls1.totBusLat                1616665000                       # Total ticks spent in databus transfers
system.mem_ctrls1.avgQLat                    34031.45                       # Average queueing delay per DRAM burst
system.mem_ctrls1.avgBusLat                   5000.00                       # Average bus latency per DRAM burst
system.mem_ctrls1.avgMemAccLat               52781.45                       # Average memory access latency per DRAM burst
system.mem_ctrls1.avgRdBW                      220.72                       # Average DRAM read bandwidth in MiByte/s
system.mem_ctrls1.avgWrBW                      122.59                       # Average achieved write bandwidth in MiByte/s
system.mem_ctrls1.avgRdBWSys                   220.74                       # Average system read bandwidth in MiByte/s
system.mem_ctrls1.avgWrBWSys                   122.59                       # Average system write bandwidth in MiByte/s
system.mem_ctrls1.peakBW                     12800.00                       # Theoretical peak bandwidth in MiByte/s
system.mem_ctrls1.busUtil                        2.68                       # Data bus utilization in percentage
system.mem_ctrls1.busUtilRead                    1.72                       # Data bus utilization in percentage for reads
system.mem_ctrls1.busUtilWrite                   0.96                       # Data bus utilization in percentage for writes
system.mem_ctrls1.avgRdQLen                      1.17                       # Average read queue length when enqueuing
system.mem_ctrls1.avgWrQLen                      2.96                       # Average write queue length when enqueuing
system.mem_ctrls1.readRowHits                  243274                       # Number of row buffer hits during reads
system.mem_ctrls1.writeRowHits                 109576                       # Number of row buffer hits during writes
system.mem_ctrls1.readRowHitRate                75.24                       # Row buffer hit rate for reads
system.mem_ctrls1.writeRowHitRate               61.02                       # Row buffer hit rate for writes
system.mem_ctrls1.avgGap                    186406.31                       # Average gap between requests
system.mem_ctrls1.pageHitRate                   70.16                       # Row buffer hit rate, read and write combined
system.mem_ctrls1.memoryStateTime::IDLE   15397277500                       # Time in different power states
system.mem_ctrls1.memoryStateTime::REF     3130400000                       # Time in different power states
system.mem_ctrls1.memoryStateTime::PRE_PDN            0                       # Time in different power states
system.mem_ctrls1.memoryStateTime::ACT    75221470500                       # Time in different power states
system.mem_ctrls1.memoryStateTime::ACT_PDN            0                       # Time in different power states
system.mem_ctrls1.actEnergy::0              572299560                       # Energy for activate commands per rank (pJ)
system.mem_ctrls1.actEnergy::1              562086000                       # Energy for activate commands per rank (pJ)
system.mem_ctrls1.preEnergy::0              312266625                       # Energy for precharge commands per rank (pJ)
system.mem_ctrls1.preEnergy::1              306693750                       # Energy for precharge commands per rank (pJ)
system.mem_ctrls1.readEnergy::0            1266642000                       # Energy for read commands per rank (pJ)
system.mem_ctrls1.readEnergy::1            1255230600                       # Energy for read commands per rank (pJ)
system.mem_ctrls1.writeEnergy::0            583426800                       # Energy for write commands per rank (pJ)
system.mem_ctrls1.writeEnergy::1            580232160                       # Energy for write commands per rank (pJ)
system.mem_ctrls1.refreshEnergy::0         6123062400                       # Energy for refresh commands per rank (pJ)
system.mem_ctrls1.refreshEnergy::1         6123062400                       # Energy for refresh commands per rank (pJ)
system.mem_ctrls1.actBackEnergy::0        38661355800                       # Energy for active background per rank (pJ)
system.mem_ctrls1.actBackEnergy::1        37700380260                       # Energy for active background per rank (pJ)
system.mem_ctrls1.preBackEnergy::0        22334556000                       # Energy for precharge background per rank (pJ)
system.mem_ctrls1.preBackEnergy::1        23177517000                       # Energy for precharge background per rank (pJ)
system.mem_ctrls1.totalEnergy::0          69853609185                       # Total energy per rank (pJ)
system.mem_ctrls1.totalEnergy::1          69705202170                       # Total energy per rank (pJ)
system.mem_ctrls1.averagePower::0          745.131314                       # Core power per rank (mW)
system.mem_ctrls1.averagePower::1          743.548250                       # Core power per rank (mW)
system.mem_ctrls2.bytes_read::ruby.dir_cntrl2     20706368                       # Number of bytes read from this memory
system.mem_ctrls2.bytes_read::total          20706368                       # Number of bytes read from this memory
system.mem_ctrls2.bytes_written::ruby.dir_cntrl2     11494592                       # Number of bytes written to this memory
system.mem_ctrls2.bytes_written::total       11494592                       # Number of bytes written to this memory
system.mem_ctrls2.num_reads::ruby.dir_cntrl2       323537                       # Number of read requests responded to by this memory
system.mem_ctrls2.num_reads::total             323537                       # Number of read requests responded to by this memory
system.mem_ctrls2.num_writes::ruby.dir_cntrl2       179603                       # Number of write requests responded to by this memory
system.mem_ctrls2.num_writes::total            179603                       # Number of write requests responded to by this memory
system.mem_ctrls2.bw_read::ruby.dir_cntrl2    220861828                       # Total read bandwidth from this memory (bytes/s)
system.mem_ctrls2.bw_read::total            220861828                       # Total read bandwidth from this memory (bytes/s)
system.mem_ctrls2.bw_write::ruby.dir_cntrl2    122605597                       # Write bandwidth from this memory (bytes/s)
system.mem_ctrls2.bw_write::total           122605597                       # Write bandwidth from this memory (bytes/s)
system.mem_ctrls2.bw_total::ruby.dir_cntrl2    343467425                       # Total bandwidth to/from this memory (bytes/s)
system.mem_ctrls2.bw_total::total           343467425                       # Total bandwidth to/from this memory (bytes/s)
system.mem_ctrls2.readReqs                     323537                       # Number of read requests accepted
system.mem_ctrls2.writeReqs                    179603                       # Number of write requests accepted
system.mem_ctrls2.readBursts                   323537                       # Number of DRAM read bursts, including those serviced by the write queue
system.mem_ctrls2.writeBursts                  179603                       # Number of DRAM write bursts, including those merged in the write queue
system.mem_ctrls2.bytesReadDRAM              20705408                       # Total number of bytes read from DRAM
system.mem_ctrls2.bytesReadWrQ                    960                       # Total number of bytes read from write queue
system.mem_ctrls2.bytesWritten               11494528                       # Total number of bytes written to DRAM
system.mem_ctrls2.bytesReadSys               20706368                       # Total read bytes from the system interface side
system.mem_ctrls2.bytesWrittenSys            11494592                       # Total written bytes from the system interface side
system.mem_ctrls2.servicedByWrQ                    15                       # Number of DRAM read bursts serviced by the write queue
system.mem_ctrls2.mergedWrBursts                    0                       # Number of DRAM write bursts merged with an existing one
system.mem_ctrls2.neitherReadNorWriteReqs            0                       # Number of requests that are neither read nor write
system.mem_ctrls2.perBankRdBursts::0            19977                       # Per bank write bursts
system.mem_ctrls2.perBankRdBursts::1            20562                       # Per bank write bursts
system.mem_ctrls2.perBankRdBursts::2            20125                       # Per bank write bursts
system.mem_ctrls2.perBankRdBursts::3            20526                       # Per bank write bursts
system.mem_ctrls2.perBankRdBursts::4            20143                       # Per bank write bursts
system.mem_ctrls2.perBankRdBursts::5            20611                       # Per bank write bursts
system.mem_ctrls2.perBankRdBursts::6            20210                       # Per bank write bursts
system.mem_ctrls2.perBankRdBursts::7            20348                       # Per bank write bursts
system.mem_ctrls2.perBankRdBursts::8            20230                       # Per bank write bursts
system.mem_ctrls2.perBankRdBursts::9            20473                       # Per bank write bursts
system.mem_ctrls2.perBankRdBursts::10           20190                       # Per bank write bursts
system.mem_ctrls2.perBankRdBursts::11           20566                       # Per bank write bursts
system.mem_ctrls2.perBankRdBursts::12           19865                       # Per bank write bursts
system.mem_ctrls2.perBankRdBursts::13           19721                       # Per bank write bursts
system.mem_ctrls2.perBankRdBursts::14           19945                       # Per bank write bursts
system.mem_ctrls2.perBankRdBursts::15           20030                       # Per bank write bursts
system.mem_ctrls2.perBankWrBursts::0            11109                       # Per bank write bursts
system.mem_ctrls2.perBankWrBursts::1            11265                       # Per bank write bursts
system.mem_ctrls2.perBankWrBursts::2            11266                       # Per bank write bursts
system.mem_ctrls2.perBankWrBursts::3            11266                       # Per bank write bursts
system.mem_ctrls2.perBankWrBursts::4            11206                       # Per bank write bursts
system.mem_ctrls2.perBankWrBursts::5            11509                       # Per bank write bursts
system.mem_ctrls2.perBankWrBursts::6            11151                       # Per bank write bursts
system.mem_ctrls2.perBankWrBursts::7            11268                       # Per bank write bursts
system.mem_ctrls2.perBankWrBursts::8            11467                       # Per bank write bursts
system.mem_ctrls2.perBankWrBursts::9            11313                       # Per bank write bursts
system.mem_ctrls2.perBankWrBursts::10           11108                       # Per bank write bursts
system.mem_ctrls2.perBankWrBursts::11           11315                       # Per bank write bursts
system.mem_ctrls2.perBankWrBursts::12           10958                       # Per bank write bursts
system.mem_ctrls2.perBankWrBursts::13           10902                       # Per bank write bursts
system.mem_ctrls2.perBankWrBursts::14           11295                       # Per bank write bursts
system.mem_ctrls2.perBankWrBursts::15           11204                       # Per bank write bursts
system.mem_ctrls2.numRdRetry                     1639                       # Number of times read queue was full causing retry
system.mem_ctrls2.numWrRetry                     1428                       # Number of times write queue was full causing retry
system.mem_ctrls2.totGap                  93752458500                       # Total gap between requests
system.mem_ctrls2.readPktSize::0                    0                       # Read request sizes (log2)
system.mem_ctrls2.readPktSize::1                    0                       # Read request sizes (log2)
system.mem_ctrls2.readPktSize::2                    0                       # Read request sizes (log2)
system.mem_ctrls2.readPktSize::3                    0                       # Read request sizes (log2)
system.mem_ctrls2.readPktSize::4                    0                       # Read request sizes (log2)
system.mem_ctrls2.readPktSize::5                    0                       # Read request sizes (log2)
system.mem_ctrls2.readPktSize::6               323537                       # Read request sizes (log2)
system.mem_ctrls2.writePktSize::0                   0                       # Write request sizes (log2)
system.mem_ctrls2.writePktSize::1                   0                       # Write request sizes (log2)
system.mem_ctrls2.writePktSize::2                   0                       # Write request sizes (log2)
system.mem_ctrls2.writePktSize::3                   0                       # Write request sizes (log2)
system.mem_ctrls2.writePktSize::4                   0                       # Write request sizes (log2)
system.mem_ctrls2.writePktSize::5                   0                       # Write request sizes (log2)
system.mem_ctrls2.writePktSize::6              179603                       # Write request sizes (log2)
system.mem_ctrls2.rdQLenPdf::0                 161281                       # What read queue length does an incoming req see
system.mem_ctrls2.rdQLenPdf::1                  41977                       # What read queue length does an incoming req see
system.mem_ctrls2.rdQLenPdf::2                  31372                       # What read queue length does an incoming req see
system.mem_ctrls2.rdQLenPdf::3                  22248                       # What read queue length does an incoming req see
system.mem_ctrls2.rdQLenPdf::4                  15900                       # What read queue length does an incoming req see
system.mem_ctrls2.rdQLenPdf::5                  11521                       # What read queue length does an incoming req see
system.mem_ctrls2.rdQLenPdf::6                   8412                       # What read queue length does an incoming req see
system.mem_ctrls2.rdQLenPdf::7                   6326                       # What read queue length does an incoming req see
system.mem_ctrls2.rdQLenPdf::8                   4796                       # What read queue length does an incoming req see
system.mem_ctrls2.rdQLenPdf::9                   3721                       # What read queue length does an incoming req see
system.mem_ctrls2.rdQLenPdf::10                  2827                       # What read queue length does an incoming req see
system.mem_ctrls2.rdQLenPdf::11                  2194                       # What read queue length does an incoming req see
system.mem_ctrls2.rdQLenPdf::12                  1653                       # What read queue length does an incoming req see
system.mem_ctrls2.rdQLenPdf::13                  1289                       # What read queue length does an incoming req see
system.mem_ctrls2.rdQLenPdf::14                  1058                       # What read queue length does an incoming req see
system.mem_ctrls2.rdQLenPdf::15                   851                       # What read queue length does an incoming req see
system.mem_ctrls2.rdQLenPdf::16                   672                       # What read queue length does an incoming req see
system.mem_ctrls2.rdQLenPdf::17                   560                       # What read queue length does an incoming req see
system.mem_ctrls2.rdQLenPdf::18                   455                       # What read queue length does an incoming req see
system.mem_ctrls2.rdQLenPdf::19                   370                       # What read queue length does an incoming req see
system.mem_ctrls2.rdQLenPdf::20                   350                       # What read queue length does an incoming req see
system.mem_ctrls2.rdQLenPdf::21                   271                       # What read queue length does an incoming req see
system.mem_ctrls2.rdQLenPdf::22                   231                       # What read queue length does an incoming req see
system.mem_ctrls2.rdQLenPdf::23                   200                       # What read queue length does an incoming req see
system.mem_ctrls2.rdQLenPdf::24                   185                       # What read queue length does an incoming req see
system.mem_ctrls2.rdQLenPdf::25                   182                       # What read queue length does an incoming req see
system.mem_ctrls2.rdQLenPdf::26                   142                       # What read queue length does an incoming req see
system.mem_ctrls2.rdQLenPdf::27                   164                       # What read queue length does an incoming req see
system.mem_ctrls2.rdQLenPdf::28                   146                       # What read queue length does an incoming req see
system.mem_ctrls2.rdQLenPdf::29                   135                       # What read queue length does an incoming req see
system.mem_ctrls2.rdQLenPdf::30                   164                       # What read queue length does an incoming req see
system.mem_ctrls2.rdQLenPdf::31                  1869                       # What read queue length does an incoming req see
system.mem_ctrls2.wrQLenPdf::0                  32629                       # What write queue length does an incoming req see
system.mem_ctrls2.wrQLenPdf::1                  34824                       # What write queue length does an incoming req see
system.mem_ctrls2.wrQLenPdf::2                  35187                       # What write queue length does an incoming req see
system.mem_ctrls2.wrQLenPdf::3                  35199                       # What write queue length does an incoming req see
system.mem_ctrls2.wrQLenPdf::4                  34719                       # What write queue length does an incoming req see
system.mem_ctrls2.wrQLenPdf::5                   2724                       # What write queue length does an incoming req see
system.mem_ctrls2.wrQLenPdf::6                   1764                       # What write queue length does an incoming req see
system.mem_ctrls2.wrQLenPdf::7                   2557                       # What write queue length does an incoming req see
system.mem_ctrls2.bytesPerActivate::samples       149515                       # Bytes accessed per row activation
system.mem_ctrls2.bytesPerActivate::mean   215.357442                       # Bytes accessed per row activation
system.mem_ctrls2.bytesPerActivate::gmean   161.704395                       # Bytes accessed per row activation
system.mem_ctrls2.bytesPerActivate::stdev   176.497442                       # Bytes accessed per row activation
system.mem_ctrls2.bytesPerActivate::0-127        47092     31.50%     31.50% # Bytes accessed per row activation
system.mem_ctrls2.bytesPerActivate::128-255        42424     28.37%     59.87% # Bytes accessed per row activation
system.mem_ctrls2.bytesPerActivate::256-383        43567     29.14%     89.01% # Bytes accessed per row activation
system.mem_ctrls2.bytesPerActivate::384-511         6576      4.40%     93.41% # Bytes accessed per row activation
system.mem_ctrls2.bytesPerActivate::512-639         3901      2.61%     96.02% # Bytes accessed per row activation
system.mem_ctrls2.bytesPerActivate::640-767         2133      1.43%     97.44% # Bytes accessed per row activation
system.mem_ctrls2.bytesPerActivate::768-895         1336      0.89%     98.34% # Bytes accessed per row activation
system.mem_ctrls2.bytesPerActivate::896-1023          843      0.56%     98.90% # Bytes accessed per row activation
system.mem_ctrls2.bytesPerActivate::1024-1151         1643      1.10%    100.00% # Bytes accessed per row activation
system.mem_ctrls2.bytesPerActivate::total       149515                       # Bytes accessed per row activation
system.mem_ctrls2.rdPerTurnAround::samples        32822                       # Reads before turning the bus around for writes
system.mem_ctrls2.rdPerTurnAround::mean      9.856681                       # Reads before turning the bus around for writes
system.mem_ctrls2.rdPerTurnAround::stdev    19.650065                       # Reads before turning the bus around for writes
system.mem_ctrls2.rdPerTurnAround::0-127        32817     99.98%     99.98% # Reads before turning the bus around for writes
system.mem_ctrls2.rdPerTurnAround::128-255            3      0.01%     99.99% # Reads before turning the bus around for writes
system.mem_ctrls2.rdPerTurnAround::1152-1279            1      0.00%    100.00% # Reads before turning the bus around for writes
system.mem_ctrls2.rdPerTurnAround::2816-2943            1      0.00%    100.00% # Reads before turning the bus around for writes
system.mem_ctrls2.rdPerTurnAround::total        32822                       # Reads before turning the bus around for writes
system.mem_ctrls2.wrPerTurnAround::samples        32822                       # Writes before turning the bus around for reads
system.mem_ctrls2.wrPerTurnAround::mean      5.472000                       # Writes before turning the bus around for reads
system.mem_ctrls2.wrPerTurnAround::gmean     5.353295                       # Writes before turning the bus around for reads
system.mem_ctrls2.wrPerTurnAround::stdev     1.471314                       # Writes before turning the bus around for reads
system.mem_ctrls2.wrPerTurnAround::4-7          30843     93.97%     93.97% # Writes before turning the bus around for reads
system.mem_ctrls2.wrPerTurnAround::8-11          1480      4.51%     98.48% # Writes before turning the bus around for reads
system.mem_ctrls2.wrPerTurnAround::12-15          262      0.80%     99.28% # Writes before turning the bus around for reads
system.mem_ctrls2.wrPerTurnAround::16-19          237      0.72%    100.00% # Writes before turning the bus around for reads
system.mem_ctrls2.wrPerTurnAround::total        32822                       # Writes before turning the bus around for reads
system.mem_ctrls2.totQLat                 11028942621                       # Total ticks spent queuing
system.mem_ctrls2.totMemAccLat            17094980121                       # Total ticks spent from burst creation until serviced by the DRAM
system.mem_ctrls2.totBusLat                1617610000                       # Total ticks spent in databus transfers
system.mem_ctrls2.avgQLat                    34090.24                       # Average queueing delay per DRAM burst
system.mem_ctrls2.avgBusLat                   5000.00                       # Average bus latency per DRAM burst
system.mem_ctrls2.avgMemAccLat               52840.24                       # Average memory access latency per DRAM burst
system.mem_ctrls2.avgRdBW                      220.85                       # Average DRAM read bandwidth in MiByte/s
system.mem_ctrls2.avgWrBW                      122.60                       # Average achieved write bandwidth in MiByte/s
system.mem_ctrls2.avgRdBWSys                   220.86                       # Average system read bandwidth in MiByte/s
system.mem_ctrls2.avgWrBWSys                   122.61                       # Average system write bandwidth in MiByte/s
system.mem_ctrls2.peakBW                     12800.00                       # Theoretical peak bandwidth in MiByte/s
system.mem_ctrls2.busUtil                        2.68                       # Data bus utilization in percentage
system.mem_ctrls2.busUtilRead                    1.73                       # Data bus utilization in percentage for reads
system.mem_ctrls2.busUtilWrite                   0.96                       # Data bus utilization in percentage for writes
system.mem_ctrls2.avgRdQLen                      1.17                       # Average read queue length when enqueuing
system.mem_ctrls2.avgWrQLen                      2.97                       # Average write queue length when enqueuing
system.mem_ctrls2.readRowHits                  243524                       # Number of row buffer hits during reads
system.mem_ctrls2.writeRowHits                 110075                       # Number of row buffer hits during writes
system.mem_ctrls2.readRowHitRate                75.27                       # Row buffer hit rate for reads
system.mem_ctrls2.writeRowHitRate               61.29                       # Row buffer hit rate for writes
system.mem_ctrls2.avgGap                    186334.73                       # Average gap between requests
system.mem_ctrls2.pageHitRate                   70.28                       # Row buffer hit rate, read and write combined
system.mem_ctrls2.memoryStateTime::IDLE   15440869250                       # Time in different power states
system.mem_ctrls2.memoryStateTime::REF     3130400000                       # Time in different power states
system.mem_ctrls2.memoryStateTime::PRE_PDN            0                       # Time in different power states
system.mem_ctrls2.memoryStateTime::ACT    75176562250                       # Time in different power states
system.mem_ctrls2.memoryStateTime::ACT_PDN            0                       # Time in different power states
system.mem_ctrls2.actEnergy::0              571248720                       # Energy for activate commands per rank (pJ)
system.mem_ctrls2.actEnergy::1              559046880                       # Energy for activate commands per rank (pJ)
system.mem_ctrls2.preEnergy::0              311693250                       # Energy for precharge commands per rank (pJ)
system.mem_ctrls2.preEnergy::1              305035500                       # Energy for precharge commands per rank (pJ)
system.mem_ctrls2.readEnergy::0            1267429800                       # Energy for read commands per rank (pJ)
system.mem_ctrls2.readEnergy::1            1255924800                       # Energy for read commands per rank (pJ)
system.mem_ctrls2.writeEnergy::0            583439760                       # Energy for write commands per rank (pJ)
system.mem_ctrls2.writeEnergy::1            580348800                       # Energy for write commands per rank (pJ)
system.mem_ctrls2.refreshEnergy::0         6123062400                       # Energy for refresh commands per rank (pJ)
system.mem_ctrls2.refreshEnergy::1         6123062400                       # Energy for refresh commands per rank (pJ)
system.mem_ctrls2.actBackEnergy::0        38550747870                       # Energy for active background per rank (pJ)
system.mem_ctrls2.actBackEnergy::1        37635808950                       # Energy for active background per rank (pJ)
system.mem_ctrls2.preBackEnergy::0        22431580500                       # Energy for precharge background per rank (pJ)
system.mem_ctrls2.preBackEnergy::1        23234158500                       # Energy for precharge background per rank (pJ)
system.mem_ctrls2.totalEnergy::0          69839202300                       # Total energy per rank (pJ)
system.mem_ctrls2.totalEnergy::1          69693385830                       # Total energy per rank (pJ)
system.mem_ctrls2.averagePower::0          744.977635                       # Core power per rank (mW)
system.mem_ctrls2.averagePower::1          743.422205                       # Core power per rank (mW)
system.mem_ctrls3.bytes_read::ruby.dir_cntrl3     20691328                       # Number of bytes read from this memory
system.mem_ctrls3.bytes_read::total          20691328                       # Number of bytes read from this memory
system.mem_ctrls3.bytes_written::ruby.dir_cntrl3     11491712                       # Number of bytes written to this memory
system.mem_ctrls3.bytes_written::total       11491712                       # Number of bytes written to this memory
system.mem_ctrls3.num_reads::ruby.dir_cntrl3       323302                       # Number of read requests responded to by this memory
system.mem_ctrls3.num_reads::total             323302                       # Number of read requests responded to by this memory
system.mem_ctrls3.num_writes::ruby.dir_cntrl3       179558                       # Number of write requests responded to by this memory
system.mem_ctrls3.num_writes::total            179558                       # Number of write requests responded to by this memory
system.mem_ctrls3.bw_read::ruby.dir_cntrl3    220701406                       # Total read bandwidth from this memory (bytes/s)
system.mem_ctrls3.bw_read::total            220701406                       # Total read bandwidth from this memory (bytes/s)
system.mem_ctrls3.bw_write::ruby.dir_cntrl3    122574878                       # Write bandwidth from this memory (bytes/s)
system.mem_ctrls3.bw_write::total           122574878                       # Write bandwidth from this memory (bytes/s)
system.mem_ctrls3.bw_total::ruby.dir_cntrl3    343276284                       # Total bandwidth to/from this memory (bytes/s)
system.mem_ctrls3.bw_total::total           343276284                       # Total bandwidth to/from this memory (bytes/s)
system.mem_ctrls3.readReqs                     323302                       # Number of read requests accepted
system.mem_ctrls3.writeReqs                    179558                       # Number of write requests accepted
system.mem_ctrls3.readBursts                   323302                       # Number of DRAM read bursts, including those serviced by the write queue
system.mem_ctrls3.writeBursts                  179558                       # Number of DRAM write bursts, including those merged in the write queue
system.mem_ctrls3.bytesReadDRAM              20690624                       # Total number of bytes read from DRAM
system.mem_ctrls3.bytesReadWrQ                    704                       # Total number of bytes read from write queue
system.mem_ctrls3.bytesWritten               11491584                       # Total number of bytes written to DRAM
system.mem_ctrls3.bytesReadSys               20691328                       # Total read bytes from the system interface side
system.mem_ctrls3.bytesWrittenSys            11491712                       # Total written bytes from the system interface side
system.mem_ctrls3.servicedByWrQ                    11                       # Number of DRAM read bursts serviced by the write queue
system.mem_ctrls3.mergedWrBursts                    0                       # Number of DRAM write bursts merged with an existing one
system.mem_ctrls3.neitherReadNorWriteReqs            0                       # Number of requests that are neither read nor write
system.mem_ctrls3.perBankRdBursts::0            19973                       # Per bank write bursts
system.mem_ctrls3.perBankRdBursts::1            20562                       # Per bank write bursts
system.mem_ctrls3.perBankRdBursts::2            20063                       # Per bank write bursts
system.mem_ctrls3.perBankRdBursts::3            20472                       # Per bank write bursts
system.mem_ctrls3.perBankRdBursts::4            20067                       # Per bank write bursts
system.mem_ctrls3.perBankRdBursts::5            20571                       # Per bank write bursts
system.mem_ctrls3.perBankRdBursts::6            20242                       # Per bank write bursts
system.mem_ctrls3.perBankRdBursts::7            20336                       # Per bank write bursts
system.mem_ctrls3.perBankRdBursts::8            20255                       # Per bank write bursts
system.mem_ctrls3.perBankRdBursts::9            20467                       # Per bank write bursts
system.mem_ctrls3.perBankRdBursts::10           20250                       # Per bank write bursts
system.mem_ctrls3.perBankRdBursts::11           20481                       # Per bank write bursts
system.mem_ctrls3.perBankRdBursts::12           19827                       # Per bank write bursts
system.mem_ctrls3.perBankRdBursts::13           19684                       # Per bank write bursts
system.mem_ctrls3.perBankRdBursts::14           19979                       # Per bank write bursts
system.mem_ctrls3.perBankRdBursts::15           20062                       # Per bank write bursts
system.mem_ctrls3.perBankWrBursts::0            11110                       # Per bank write bursts
system.mem_ctrls3.perBankWrBursts::1            11255                       # Per bank write bursts
system.mem_ctrls3.perBankWrBursts::2            11263                       # Per bank write bursts
system.mem_ctrls3.perBankWrBursts::3            11246                       # Per bank write bursts
system.mem_ctrls3.perBankWrBursts::4            11203                       # Per bank write bursts
system.mem_ctrls3.perBankWrBursts::5            11512                       # Per bank write bursts
system.mem_ctrls3.perBankWrBursts::6            11142                       # Per bank write bursts
system.mem_ctrls3.perBankWrBursts::7            11259                       # Per bank write bursts
system.mem_ctrls3.perBankWrBursts::8            11460                       # Per bank write bursts
system.mem_ctrls3.perBankWrBursts::9            11323                       # Per bank write bursts
system.mem_ctrls3.perBankWrBursts::10           11112                       # Per bank write bursts
system.mem_ctrls3.perBankWrBursts::11           11316                       # Per bank write bursts
system.mem_ctrls3.perBankWrBursts::12           10957                       # Per bank write bursts
system.mem_ctrls3.perBankWrBursts::13           10910                       # Per bank write bursts
system.mem_ctrls3.perBankWrBursts::14           11294                       # Per bank write bursts
system.mem_ctrls3.perBankWrBursts::15           11194                       # Per bank write bursts
system.mem_ctrls3.numRdRetry                     1761                       # Number of times read queue was full causing retry
system.mem_ctrls3.numWrRetry                     1549                       # Number of times write queue was full causing retry
system.mem_ctrls3.totGap                  93751758000                       # Total gap between requests
system.mem_ctrls3.readPktSize::0                    0                       # Read request sizes (log2)
system.mem_ctrls3.readPktSize::1                    0                       # Read request sizes (log2)
system.mem_ctrls3.readPktSize::2                    0                       # Read request sizes (log2)
system.mem_ctrls3.readPktSize::3                    0                       # Read request sizes (log2)
system.mem_ctrls3.readPktSize::4                    0                       # Read request sizes (log2)
system.mem_ctrls3.readPktSize::5                    0                       # Read request sizes (log2)
system.mem_ctrls3.readPktSize::6               323302                       # Read request sizes (log2)
system.mem_ctrls3.writePktSize::0                   0                       # Write request sizes (log2)
system.mem_ctrls3.writePktSize::1                   0                       # Write request sizes (log2)
system.mem_ctrls3.writePktSize::2                   0                       # Write request sizes (log2)
system.mem_ctrls3.writePktSize::3                   0                       # Write request sizes (log2)
system.mem_ctrls3.writePktSize::4                   0                       # Write request sizes (log2)
system.mem_ctrls3.writePktSize::5                   0                       # Write request sizes (log2)
system.mem_ctrls3.writePktSize::6              179558                       # Write request sizes (log2)
system.mem_ctrls3.rdQLenPdf::0                 160979                       # What read queue length does an incoming req see
system.mem_ctrls3.rdQLenPdf::1                  42239                       # What read queue length does an incoming req see
system.mem_ctrls3.rdQLenPdf::2                  31705                       # What read queue length does an incoming req see
system.mem_ctrls3.rdQLenPdf::3                  22630                       # What read queue length does an incoming req see
system.mem_ctrls3.rdQLenPdf::4                  15784                       # What read queue length does an incoming req see
system.mem_ctrls3.rdQLenPdf::5                  11620                       # What read queue length does an incoming req see
system.mem_ctrls3.rdQLenPdf::6                   8474                       # What read queue length does an incoming req see
system.mem_ctrls3.rdQLenPdf::7                   6189                       # What read queue length does an incoming req see
system.mem_ctrls3.rdQLenPdf::8                   4668                       # What read queue length does an incoming req see
system.mem_ctrls3.rdQLenPdf::9                   3606                       # What read queue length does an incoming req see
system.mem_ctrls3.rdQLenPdf::10                  2735                       # What read queue length does an incoming req see
system.mem_ctrls3.rdQLenPdf::11                  2050                       # What read queue length does an incoming req see
system.mem_ctrls3.rdQLenPdf::12                  1576                       # What read queue length does an incoming req see
system.mem_ctrls3.rdQLenPdf::13                  1222                       # What read queue length does an incoming req see
system.mem_ctrls3.rdQLenPdf::14                   992                       # What read queue length does an incoming req see
system.mem_ctrls3.rdQLenPdf::15                   762                       # What read queue length does an incoming req see
system.mem_ctrls3.rdQLenPdf::16                   638                       # What read queue length does an incoming req see
system.mem_ctrls3.rdQLenPdf::17                   498                       # What read queue length does an incoming req see
system.mem_ctrls3.rdQLenPdf::18                   419                       # What read queue length does an incoming req see
system.mem_ctrls3.rdQLenPdf::19                   356                       # What read queue length does an incoming req see
system.mem_ctrls3.rdQLenPdf::20                   313                       # What read queue length does an incoming req see
system.mem_ctrls3.rdQLenPdf::21                   254                       # What read queue length does an incoming req see
system.mem_ctrls3.rdQLenPdf::22                   231                       # What read queue length does an incoming req see
system.mem_ctrls3.rdQLenPdf::23                   204                       # What read queue length does an incoming req see
system.mem_ctrls3.rdQLenPdf::24                   192                       # What read queue length does an incoming req see
[...]
system.ruby.L2Cache_Controller.MT_MB.L1_GETX::total            5                      
system.ruby.L2Cache_Controller.MT_MB.L1_PUTX |           3      5.45%      5.45% |           3      5.45%     10.91% |           0      0.00%     10.91% |           3      5.45%     16.36% |           0      0.00%     16.36% |           1      1.82%     18.18% |           1      1.82%     20.00% |           1      1.82%     21.82% |           1      1.82%     23.64% |           3      5.45%     29.09% |           3      5.45%     34.55% |           0      0.00%     34.55% |           1      1.82%     36.36% |           4      7.27%     43.64% |           2      3.64%     47.27% |           1      1.82%     49.09% |           2      3.64%     52.73% |           3      5.45%     58.18% |           0      0.00%     58.18% |           5      9.09%     67.27% |           1      1.82%     69.09% |           2      3.64%     72.73% |           4      7.27%     80.00% |           2      3.64%     83.64% |           3      5.45%     89.09% |           0      0.00%     89.09% |           1      1.82%     90.91% |           1      1.82%     92.73% |           2      3.64%     96.36% |           0      0.00%     96.36% |           1      1.82%     98.18% |           1      1.82%    100.00%
system.ruby.L2Cache_Controller.MT_MB.L1_PUTX::total           55                      
system.ruby.L2Cache_Controller.MT_MB.L1_PUTX_old |           0      0.00%      0.00% |           0      0.00%      0.00% |           0      0.00%      0.00% |           0      0.00%      0.00% |           0      0.00%      0.00% |           1    100.00%    100.00% |           0      0.00%    100.00% |           0      0.00%    100.00% |           0      0.00%    100.00% |           0      0.00%    100.00% |           0      0.00%    100.00% |           0      0.00%    100.00% |           0      0.00%    100.00% |           0      0.00%    100.00% |           0      0.00%    100.00% |           0      0.00%    100.00% |           0      0.00%    100.00% |           0      0.00%    100.00% |           0      0.00%    100.00% |           0      0.00%    100.00% |           0      0.00%    100.00% |           0      0.00%    100.00% |           0      0.00%    100.00% |           0      0.00%    100.00% |           0      0.00%    100.00% |           0      0.00%    100.00% |           0      0.00%    100.00% |           0      0.00%    100.00% |           0      0.00%    100.00% |           0      0.00%    100.00% |           0      0.00%    100.00% |           0      0.00%    100.00%
system.ruby.L2Cache_Controller.MT_MB.L1_PUTX_old::total            1                      
system.ruby.L2Cache_Controller.MT_MB.Exclusive_Unblock |      153683      5.67%      5.67% |       83837      3.09%      8.76% |       82436      3.04%     11.80% |       83170      3.07%     14.87% |       82062      3.03%     17.90% |       81764      3.02%     20.92% |       81977      3.02%     23.94% |       81526      3.01%     26.95% |       81972      3.02%     29.97% |       83178      3.07%     33.04% |       84354      3.11%     36.16% |       83194      3.07%     39.23% |       82448      3.04%     42.27% |       81363      3.00%     45.27% |       80776      2.98%     48.25% |       81190      3.00%     51.25% |       82393      3.04%     54.29% |       82003      3.03%     57.31% |       82636      3.05%     60.36% |       82445      3.04%     63.40% |       82209      3.03%     66.43% |       84432      3.12%     69.55% |       82291      3.04%     72.59% |       81834      3.02%     75.61% |       81941      3.02%     78.63% |       82353      3.04%     81.67% |       82118      3.03%     84.70% |       81586      3.01%     87.71% |       81808      3.02%     90.73% |       81383      3.00%     93.73% |       84229      3.11%     96.84% |       85773      3.16%    100.00%
system.ruby.L2Cache_Controller.MT_MB.Exclusive_Unblock::total      2710364                      
system.ruby.L2Cache_Controller.MT_IIB.L1_GETS |           0      0.00%      0.00% |           0      0.00%      0.00% |           0      0.00%      0.00% |           0      0.00%      0.00% |           0      0.00%      0.00% |           0      0.00%      0.00% |           2     33.33%     33.33% |           0      0.00%     33.33% |           0      0.00%     33.33% |           0      0.00%     33.33% |           0      0.00%     33.33% |           0      0.00%     33.33% |           0      0.00%     33.33% |           0      0.00%     33.33% |           0      0.00%     33.33% |           0      0.00%     33.33% |           0      0.00%     33.33% |           0      0.00%     33.33% |           1     16.67%     50.00% |           0      0.00%     50.00% |           2     33.33%     83.33% |           0      0.00%     83.33% |           0      0.00%     83.33% |           0      0.00%     83.33% |           0      0.00%     83.33% |           0      0.00%     83.33% |           0      0.00%     83.33% |           0      0.00%     83.33% |           1     16.67%    100.00% |           0      0.00%    100.00% |           0      0.00%    100.00% |           0      0.00%    100.00%
system.ruby.L2Cache_Controller.MT_IIB.L1_GETS::total            6                      
system.ruby.L2Cache_Controller.MT_IIB.L1_PUTX |           2      0.62%      0.62% |           9      2.77%      3.38% |           6      1.85%      5.23% |           9      2.77%      8.00% |           6      1.85%      9.85% |          10      3.08%     12.92% |           2      0.62%     13.54% |          11      3.38%     16.92% |          13      4.00%     20.92% |           8      2.46%     23.38% |           4      1.23%     24.62% |          12      3.69%     28.31% |           6      1.85%     30.15% |           6      1.85%     32.00% |          15      4.62%     36.62% |           6      1.85%     38.46% |          11      3.38%     41.85% |           5      1.54%     43.38% |          15      4.62%     48.00% |          17      5.23%     53.23% |          14      4.31%     57.54% |          10      3.08%     60.62% |          20      6.15%     66.77% |          10      3.08%     69.85% |          18      5.54%     75.38% |          11      3.38%     78.77% |          10      3.08%     81.85% |          19      5.85%     87.69% |          10      3.08%     90.77% |          13      4.00%     94.77% |           9      2.77%     97.54% |           8      2.46%    100.00%
system.ruby.L2Cache_Controller.MT_IIB.L1_PUTX::total          325                      
system.ruby.L2Cache_Controller.MT_IIB.WB_Data |           0      0.00%      0.00% |           0      0.00%      0.00% |           0      0.00%      0.00% |           0      0.00%      0.00% |           0      0.00%      0.00% |           0      0.00%      0.00% |           0      0.00%      0.00% |           0      0.00%      0.00% |           0      0.00%      0.00% |           0      0.00%      0.00% |           0      0.00%      0.00% |           0      0.00%      0.00% |           0      0.00%      0.00% |           0      0.00%      0.00% |           0      0.00%      0.00% |           0      0.00%      0.00% |           0      0.00%      0.00% |           0      0.00%      0.00% |           0      0.00%      0.00% |           0      0.00%      0.00% |           0      0.00%      0.00% |           0      0.00%      0.00% |           0      0.00%      0.00% |           0      0.00%      0.00% |           0      0.00%      0.00% |           2    100.00%    100.00% |           0      0.00%    100.00% |           0      0.00%    100.00% |           0      0.00%    100.00% |           0      0.00%    100.00% |           0      0.00%    100.00% |           0      0.00%    100.00%
system.ruby.L2Cache_Controller.MT_IIB.WB_Data::total            2                      
system.ruby.L2Cache_Controller.MT_IIB.WB_Data_clean |        1820      3.13%      3.13% |        1793      3.09%      6.22% |        1791      3.08%      9.30% |        1822      3.14%     12.43% |        1790      3.08%     15.51% |        1728      2.97%     18.49% |        1737      2.99%     21.48% |        1837      3.16%     24.64% |        1736      2.99%     27.62% |        1812      3.12%     30.74% |        1832      3.15%     33.89% |        1879      3.23%     37.13% |        1868      3.21%     40.34% |        1805      3.11%     43.45% |        1848      3.18%     46.63% |        1859      3.20%     49.83% |        1834      3.16%     52.98% |        1827      3.14%     56.12% |        1831      3.15%     59.28% |        1902      3.27%     62.55% |        1831      3.15%     65.70% |        1837      3.16%     68.86% |        1823      3.14%     72.00% |        1832      3.15%     75.15% |        1871      3.22%     78.37% |        1802      3.10%     81.47% |        1804      3.10%     84.57% |        1807      3.11%     87.68% |        1807      3.11%     90.79% |        1767      3.04%     93.83% |        1765      3.04%     96.87% |        1820      3.13%    100.00%
system.ruby.L2Cache_Controller.MT_IIB.WB_Data_clean::total        58117                      
system.ruby.L2Cache_Controller.MT_IIB.Unblock |           9      0.50%      0.50% |          32      1.77%      2.27% |          48      2.65%      4.92% |          31      1.71%      6.63% |          57      3.15%      9.78% |          60      3.31%     13.09% |          67      3.70%     16.80% |          53      2.93%     19.72% |         118      6.52%     26.24% |          53      2.93%     29.17% |          52      2.87%     32.04% |          53      2.93%     34.97% |          52      2.87%     37.85% |          81      4.48%     42.32% |          50      2.76%     45.08% |          29      1.60%     46.69% |          60      3.31%     50.00% |          70      3.87%     53.87% |          78      4.31%     58.18% |          53      2.93%     61.10% |          97      5.36%     66.46% |          64      3.54%     70.00% |          67      3.70%     73.70% |          61      3.37%     77.07% |          33      1.82%     78.90% |          52      2.87%     81.77% |          63      3.48%     85.25% |          48      2.65%     87.90% |          45      2.49%     90.39% |          60      3.31%     93.70% |          59      3.26%     96.96% |          55      3.04%    100.00%
system.ruby.L2Cache_Controller.MT_IIB.Unblock::total         1810                      
system.ruby.L2Cache_Controller.MT_IB.WB_Data_clean |           9      0.50%      0.50% |          32      1.77%      2.27% |          48      2.65%      4.92% |          31      1.71%      6.63% |          57      3.15%      9.78% |          60      3.31%     13.09% |          67      3.70%     16.80% |          53      2.93%     19.72% |         118      6.52%     26.24% |          53      2.93%     29.17% |          52      2.87%     32.04% |          53      2.93%     34.97% |          52      2.87%     37.85% |          81      4.48%     42.32% |          50      2.76%     45.08% |          29      1.60%     46.69% |          60      3.31%     50.00% |          70      3.87%     53.87% |          78      4.31%     58.18% |          53      2.93%     61.10% |          97      5.36%     66.46% |          64      3.54%     70.00% |          67      3.70%     73.70% |          61      3.37%     77.07% |          33      1.82%     78.90% |          52      2.87%     81.77% |          63      3.48%     85.25% |          48      2.65%     87.90% |          45      2.49%     90.39% |          60      3.31%     93.70% |          59      3.26%     96.96% |          55      3.04%    100.00%
system.ruby.L2Cache_Controller.MT_IB.WB_Data_clean::total         1810                      
system.ruby.L2Cache_Controller.MT_SB.L1_PUTX |           0      0.00%      0.00% |           0      0.00%      0.00% |           0      0.00%      0.00% |           0      0.00%      0.00% |           0      0.00%      0.00% |           1     14.29%     14.29% |           0      0.00%     14.29% |           0      0.00%     14.29% |           1     14.29%     28.57% |           0      0.00%     28.57% |           0      0.00%     28.57% |           0      0.00%     28.57% |           0      0.00%     28.57% |           1     14.29%     42.86% |           0      0.00%     42.86% |           0      0.00%     42.86% |           0      0.00%     42.86% |           0      0.00%     42.86% |           0      0.00%     42.86% |           0      0.00%     42.86% |           0      0.00%     42.86% |           1     14.29%     57.14% |           0      0.00%     57.14% |           0      0.00%     57.14% |           1     14.29%     71.43% |           1     14.29%     85.71% |           0      0.00%     85.71% |           0      0.00%     85.71% |           0      0.00%     85.71% |           0      0.00%     85.71% |           1     14.29%    100.00% |           0      0.00%    100.00%
system.ruby.L2Cache_Controller.MT_SB.L1_PUTX::total            7                      
system.ruby.L2Cache_Controller.MT_SB.Unblock |        1820      3.13%      3.13% |        1793      3.09%      6.22% |        1791      3.08%      9.30% |        1822      3.13%     12.43% |        1790      3.08%     15.51% |        1728      2.97%     18.49% |        1737      2.99%     21.47% |        1837      3.16%     24.64% |        1736      2.99%     27.62% |        1812      3.12%     30.74% |        1832      3.15%     33.89% |        1879      3.23%     37.13% |        1868      3.21%     40.34% |        1805      3.11%     43.45% |        1848      3.18%     46.63% |        1859      3.20%     49.82% |        1834      3.16%     52.98% |        1827      3.14%     56.12% |        1831      3.15%     59.27% |        1902      3.27%     62.55% |        1831      3.15%     65.70% |        1837      3.16%     68.86% |        1823      3.14%     71.99% |        1832      3.15%     75.15% |        1871      3.22%     78.37% |        1804      3.10%     81.47% |        1804      3.10%     84.57% |        1807      3.11%     87.68% |        1807      3.11%     90.79% |        1767      3.04%     93.83% |        1765      3.04%     96.87% |        1820      3.13%    100.00%
system.ruby.L2Cache_Controller.MT_SB.Unblock::total        58119                      
system.ruby.SimicsNetworkPortInterface_Controller.MessageSend |      532264     19.21%     19.21% |     1385503     50.00%     69.21% |      107563      3.88%     73.09% |      102316      3.69%     76.78% |      105977      3.82%     80.61% |      119188      4.30%     84.91% |      104301      3.76%     88.67% |      112485      4.06%     92.73% |      105304      3.80%     96.53% |       96105      3.47%    100.00% |           0      0.00%    100.00% |           0      0.00%    100.00% |           0      0.00%    100.00% |           0      0.00%    100.00% |           0      0.00%    100.00% |           0      0.00%    100.00% |           0      0.00%    100.00% |           0      0.00%    100.00% |           0      0.00%    100.00% |           0      0.00%    100.00% |           0      0.00%    100.00% |           0      0.00%    100.00% |           0      0.00%    100.00% |           0      0.00%    100.00% |           0      0.00%    100.00% |           0      0.00%    100.00% |           0      0.00%    100.00% |           0      0.00%    100.00% |           0      0.00%    100.00% |           0      0.00%    100.00% |           0      0.00%    100.00% |           0      0.00%    100.00%
system.ruby.SimicsNetworkPortInterface_Controller.MessageSend::total      2771006                      
system.ruby.SimicsNetworkPortInterface_Controller.MessageRecv |      532264     19.21%     19.21% |     1385503     50.00%     69.21% |      107563      3.88%     73.09% |      102316      3.69%     76.78% |      105977      3.82%     80.61% |      119188      4.30%     84.91% |      104301      3.76%     88.67% |      112485      4.06%     92.73% |      105304      3.80%     96.53% |       96105      3.47%    100.00% |           0      0.00%    100.00% |           0      0.00%    100.00% |           0      0.00%    100.00% |           0      0.00%    100.00% |           0      0.00%    100.00% |           0      0.00%    100.00% |           0      0.00%    100.00% |           0      0.00%    100.00% |           0      0.00%    100.00% |           0      0.00%    100.00% |           0      0.00%    100.00% |           0      0.00%    100.00% |           0      0.00%    100.00% |           0      0.00%    100.00% |           0      0.00%    100.00% |           0      0.00%    100.00% |           0      0.00%    100.00% |           0      0.00%    100.00% |           0      0.00%    100.00% |           0      0.00%    100.00% |           0      0.00%    100.00% |           0      0.00%    100.00%
system.ruby.SimicsNetworkPortInterface_Controller.MessageRecv::total      2771006                      
system.ruby.SimicsNetworkPortInterface_Controller.A.MessageSend |      532264     19.21%     19.21% |     1385503     50.00%     69.21% |      107563      3.88%     73.09% |      102316      3.69%     76.78% |      105977      3.82%     80.61% |      119188      4.30%     84.91% |      104301      3.76%     88.67% |      112485      4.06%     92.73% |      105304      3.80%     96.53% |       96105      3.47%    100.00% |           0      0.00%    100.00% |           0      0.00%    100.00% |           0      0.00%    100.00% |           0      0.00%    100.00% |           0      0.00%    100.00% |           0      0.00%    100.00% |           0      0.00%    100.00% |           0      0.00%    100.00% |           0      0.00%    100.00% |           0      0.00%    100.00% |           0      0.00%    100.00% |           0      0.00%    100.00% |           0      0.00%    100.00% |           0      0.00%    100.00% |           0      0.00%    100.00% |           0      0.00%    100.00% |           0      0.00%    100.00% |           0      0.00%    100.00% |           0      0.00%    100.00% |           0      0.00%    100.00% |           0      0.00%    100.00% |           0      0.00%    100.00%
system.ruby.SimicsNetworkPortInterface_Controller.A.MessageSend::total      2771006                      
system.ruby.SimicsNetworkPortInterface_Controller.A.MessageRecv |      532264     19.21%     19.21% |     1385503     50.00%     69.21% |      107563      3.88%     73.09% |      102316      3.69%     76.78% |      105977      3.82%     80.61% |      119188      4.30%     84.91% |      104301      3.76%     88.67% |      112485      4.06%     92.73% |      105304      3.80%     96.53% |       96105      3.47%    100.00% |           0      0.00%    100.00% |           0      0.00%    100.00% |           0      0.00%    100.00% |           0      0.00%    100.00% |           0      0.00%    100.00% |           0      0.00%    100.00% |           0      0.00%    100.00% |           0      0.00%    100.00% |           0      0.00%    100.00% |           0      0.00%    100.00% |           0      0.00%    100.00% |           0      0.00%    100.00% |           0      0.00%    100.00% |           0      0.00%    100.00% |           0      0.00%    100.00% |           0      0.00%    100.00% |           0      0.00%    100.00% |           0      0.00%    100.00% |           0      0.00%    100.00% |           0      0.00%    100.00% |           0      0.00%    100.00% |           0      0.00%    100.00%
system.ruby.SimicsNetworkPortInterface_Controller.A.MessageRecv::total      2771006                      
system.switch_cpus.kern.inst.arm                    0                       # number of arm instructions executed
system.switch_cpus.kern.inst.quiesce                0                       # number of quiesce instructions executed

---------- End Simulation Statistics   ----------
