
---------- Begin Simulation Statistics ----------
sim_seconds                                  0.093333                       # Number of seconds simulated
sim_ticks                                 93332689000                       # Number of ticks simulated
final_tick                               5269500767500                       # Number of ticks from beginning of simulation (restored from checkpoints and never reset)
sim_freq                                 1000000000000                       # Frequency of simulated ticks
host_inst_rate                                  52919                       # Simulator instruction rate (inst/s)
host_op_rate                                    93343                       # Simulator op (including micro ops) rate (op/s)
host_tick_rate                              115960025                       # Simulator tick rate (ticks/s)
host_mem_usage                                5971424                       # Number of bytes of host memory used
host_seconds                                   804.87                       # Real time elapsed on the host
sim_insts                                    42593252                       # Number of instructions simulated
sim_ops                                      75128831                       # Number of ops (including micro ops) simulated
system.voltage_domain.voltage                       1                       # Voltage in Volts
system.clk_domain.clock                           500                       # Clock period in ticks
system.mem_ctrls0.bytes_read::ruby.dir_cntrl0     21118592                       # Number of bytes read from this memory
system.mem_ctrls0.bytes_read::total          21118592                       # Number of bytes read from this memory
system.mem_ctrls0.bytes_written::ruby.dir_cntrl0     11911616                       # Number of bytes written to this memory
system.mem_ctrls0.bytes_written::total       11911616                       # Number of bytes written to this memory
system.mem_ctrls0.num_reads::ruby.dir_cntrl0       329978                       # Number of read requests responded to by this memory
system.mem_ctrls0.num_reads::total             329978                       # Number of read requests responded to by this memory
system.mem_ctrls0.num_writes::ruby.dir_cntrl0       186119                       # Number of write requests responded to by this memory
system.mem_ctrls0.num_writes::total            186119                       # Number of write requests responded to by this memory
system.mem_ctrls0.bw_read::ruby.dir_cntrl0    226272191                       # Total read bandwidth from this memory (bytes/s)
system.mem_ctrls0.bw_read::total            226272191                       # Total read bandwidth from this memory (bytes/s)
system.mem_ctrls0.bw_write::ruby.dir_cntrl0    127625338                       # Write bandwidth from this memory (bytes/s)
system.mem_ctrls0.bw_write::total           127625338                       # Write bandwidth from this memory (bytes/s)
system.mem_ctrls0.bw_total::ruby.dir_cntrl0    353897529                       # Total bandwidth to/from this memory (bytes/s)
system.mem_ctrls0.bw_total::total           353897529                       # Total bandwidth to/from this memory (bytes/s)
system.mem_ctrls0.readReqs                     329978                       # Number of read requests accepted
system.mem_ctrls0.writeReqs                    186119                       # Number of write requests accepted
system.mem_ctrls0.readBursts                   329978                       # Number of DRAM read bursts, including those serviced by the write queue
system.mem_ctrls0.writeBursts                  186119                       # Number of DRAM write bursts, including those merged in the write queue
system.mem_ctrls0.bytesReadDRAM              21116352                       # Total number of bytes read from DRAM
system.mem_ctrls0.bytesReadWrQ                   2240                       # Total number of bytes read from write queue
system.mem_ctrls0.bytesWritten               11911360                       # Total number of bytes written to DRAM
system.mem_ctrls0.bytesReadSys               21118592                       # Total read bytes from the system interface side
system.mem_ctrls0.bytesWrittenSys            11911616                       # Total written bytes from the system interface side
system.mem_ctrls0.servicedByWrQ                    35                       # Number of DRAM read bursts serviced by the write queue
system.mem_ctrls0.mergedWrBursts                    0                       # Number of DRAM write bursts merged with an existing one
system.mem_ctrls0.neitherReadNorWriteReqs            0                       # Number of requests that are neither read nor write
system.mem_ctrls0.perBankRdBursts::0            20334                       # Per bank write bursts
system.mem_ctrls0.perBankRdBursts::1            20995                       # Per bank write bursts
system.mem_ctrls0.perBankRdBursts::2            20486                       # Per bank write bursts
system.mem_ctrls0.perBankRdBursts::3            20862                       # Per bank write bursts
system.mem_ctrls0.perBankRdBursts::4            20530                       # Per bank write bursts
system.mem_ctrls0.perBankRdBursts::5            21069                       # Per bank write bursts
system.mem_ctrls0.perBankRdBursts::6            20628                       # Per bank write bursts
system.mem_ctrls0.perBankRdBursts::7            20721                       # Per bank write bursts
system.mem_ctrls0.perBankRdBursts::8            20683                       # Per bank write bursts
system.mem_ctrls0.perBankRdBursts::9            20865                       # Per bank write bursts
system.mem_ctrls0.perBankRdBursts::10           20603                       # Per bank write bursts
system.mem_ctrls0.perBankRdBursts::11           20961                       # Per bank write bursts
system.mem_ctrls0.perBankRdBursts::12           20241                       # Per bank write bursts
system.mem_ctrls0.perBankRdBursts::13           20129                       # Per bank write bursts
system.mem_ctrls0.perBankRdBursts::14           20445                       # Per bank write bursts
system.mem_ctrls0.perBankRdBursts::15           20391                       # Per bank write bursts
system.mem_ctrls0.perBankWrBursts::0            11500                       # Per bank write bursts
system.mem_ctrls0.perBankWrBursts::1            11667                       # Per bank write bursts
system.mem_ctrls0.perBankWrBursts::2            11670                       # Per bank write bursts
system.mem_ctrls0.perBankWrBursts::3            11648                       # Per bank write bursts
system.mem_ctrls0.perBankWrBursts::4            11607                       # Per bank write bursts
system.mem_ctrls0.perBankWrBursts::5            11920                       # Per bank write bursts
system.mem_ctrls0.perBankWrBursts::6            11557                       # Per bank write bursts
system.mem_ctrls0.perBankWrBursts::7            11680                       # Per bank write bursts
system.mem_ctrls0.perBankWrBursts::8            11898                       # Per bank write bursts
system.mem_ctrls0.perBankWrBursts::9            11722                       # Per bank write bursts
system.mem_ctrls0.perBankWrBursts::10           11527                       # Per bank write bursts
system.mem_ctrls0.perBankWrBursts::11           11705                       # Per bank write bursts
system.mem_ctrls0.perBankWrBursts::12           11343                       # Per bank write bursts
system.mem_ctrls0.perBankWrBursts::13           11317                       # Per bank write bursts
system.mem_ctrls0.perBankWrBursts::14           11755                       # Per bank write bursts
system.mem_ctrls0.perBankWrBursts::15           11599                       # Per bank write bursts
system.mem_ctrls0.numRdRetry                     2339                       # Number of times read queue was full causing retry
system.mem_ctrls0.numWrRetry                     1638                       # Number of times write queue was full causing retry
system.mem_ctrls0.totGap                  93332112000                       # Total gap between requests
system.mem_ctrls0.readPktSize::0                    0                       # Read request sizes (log2)
system.mem_ctrls0.readPktSize::1                    0                       # Read request sizes (log2)
system.mem_ctrls0.readPktSize::2                    0                       # Read request sizes (log2)
system.mem_ctrls0.readPktSize::3                    0                       # Read request sizes (log2)
system.mem_ctrls0.readPktSize::4                    0                       # Read request sizes (log2)
system.mem_ctrls0.readPktSize::5                    0                       # Read request sizes (log2)
system.mem_ctrls0.readPktSize::6               329978                       # Read request sizes (log2)
system.mem_ctrls0.writePktSize::0                   0                       # Write request sizes (log2)
system.mem_ctrls0.writePktSize::1                   0                       # Write request sizes (log2)
system.mem_ctrls0.writePktSize::2                   0                       # Write request sizes (log2)
system.mem_ctrls0.writePktSize::3                   0                       # Write request sizes (log2)
system.mem_ctrls0.writePktSize::4                   0                       # Write request sizes (log2)
system.mem_ctrls0.writePktSize::5                   0                       # Write request sizes (log2)
system.mem_ctrls0.writePktSize::6              186119                       # Write request sizes (log2)
system.mem_ctrls0.rdQLenPdf::0                 159119                       # What read queue length does an incoming req see
system.mem_ctrls0.rdQLenPdf::1                  41725                       # What read queue length does an incoming req see
system.mem_ctrls0.rdQLenPdf::2                  31020                       # What read queue length does an incoming req see
system.mem_ctrls0.rdQLenPdf::3                  22210                       # What read queue length does an incoming req see
system.mem_ctrls0.rdQLenPdf::4                  16570                       # What read queue length does an incoming req see
system.mem_ctrls0.rdQLenPdf::5                  12445                       # What read queue length does an incoming req see
system.mem_ctrls0.rdQLenPdf::6                   9263                       # What read queue length does an incoming req see
system.mem_ctrls0.rdQLenPdf::7                   7153                       # What read queue length does an incoming req see
system.mem_ctrls0.rdQLenPdf::8                   5490                       # What read queue length does an incoming req see
system.mem_ctrls0.rdQLenPdf::9                   4415                       # What read queue length does an incoming req see
system.mem_ctrls0.rdQLenPdf::10                  3493                       # What read queue length does an incoming req see
system.mem_ctrls0.rdQLenPdf::11                  2645                       # What read queue length does an incoming req see
system.mem_ctrls0.rdQLenPdf::12                  2152                       # What read queue length does an incoming req see
system.mem_ctrls0.rdQLenPdf::13                  1741                       # What read queue length does an incoming req see
system.mem_ctrls0.rdQLenPdf::14                  1379                       # What read queue length does an incoming req see
system.mem_ctrls0.rdQLenPdf::15                  1106                       # What read queue length does an incoming req see
system.mem_ctrls0.rdQLenPdf::16                   896                       # What read queue length does an incoming req see
system.mem_ctrls0.rdQLenPdf::17                   795                       # What read queue length does an incoming req see
system.mem_ctrls0.rdQLenPdf::18                   599                       # What read queue length does an incoming req see
system.mem_ctrls0.rdQLenPdf::19                   498                       # What read queue length does an incoming req see
system.mem_ctrls0.rdQLenPdf::20                   415                       # What read queue length does an incoming req see
system.mem_ctrls0.rdQLenPdf::21                   373                       # What read queue length does an incoming req see
system.mem_ctrls0.rdQLenPdf::22                   326                       # What read queue length does an incoming req see
system.mem_ctrls0.rdQLenPdf::23                   250                       # What read queue length does an incoming req see
system.mem_ctrls0.rdQLenPdf::24                   218                       # What read queue length does an incoming req see
system.mem_ctrls0.rdQLenPdf::25                   189                       # What read queue length does an incoming req see
system.mem_ctrls0.rdQLenPdf::26                   186                       # What read queue length does an incoming req see
system.mem_ctrls0.rdQLenPdf::27                   169                       # What read queue length does an incoming req see
system.mem_ctrls0.rdQLenPdf::28                   166                       # What read queue length does an incoming req see
system.mem_ctrls0.rdQLenPdf::29                   151                       # What read queue length does an incoming req see
system.mem_ctrls0.rdQLenPdf::30                   183                       # What read queue length does an incoming req see
system.mem_ctrls0.rdQLenPdf::31                  2603                       # What read queue length does an incoming req see
system.mem_ctrls0.wrQLenPdf::0                  33527                       # What write queue length does an incoming req see
system.mem_ctrls0.wrQLenPdf::1                  35991                       # What write queue length does an incoming req see
system.mem_ctrls0.wrQLenPdf::2                  36526                       # What write queue length does an incoming req see
system.mem_ctrls0.wrQLenPdf::3                  36243                       # What write queue length does an incoming req see
system.mem_ctrls0.wrQLenPdf::4                  35740                       # What write queue length does an incoming req see
system.mem_ctrls0.wrQLenPdf::5                   2995                       # What write queue length does an incoming req see
system.mem_ctrls0.wrQLenPdf::6                   2096                       # What write queue length does an incoming req see
system.mem_ctrls0.wrQLenPdf::7                   3001                       # What write queue length does an incoming req see
system.mem_ctrls0.bytesPerActivate::samples       154581                       # Bytes accessed per row activation
system.mem_ctrls0.bytesPerActivate::mean   213.653787                       # Bytes accessed per row activation
system.mem_ctrls0.bytesPerActivate::gmean   159.918437                       # Bytes accessed per row activation
system.mem_ctrls0.bytesPerActivate::stdev   179.274824                       # Bytes accessed per row activation
system.mem_ctrls0.bytesPerActivate::0-127        48885     31.62%     31.62% # Bytes accessed per row activation
system.mem_ctrls0.bytesPerActivate::128-255        46204     29.89%     61.51% # Bytes accessed per row activation
system.mem_ctrls0.bytesPerActivate::256-383        42804     27.69%     89.20% # Bytes accessed per row activation
system.mem_ctrls0.bytesPerActivate::384-511         6399      4.14%     93.34% # Bytes accessed per row activation
system.mem_ctrls0.bytesPerActivate::512-639         3940      2.55%     95.89% # Bytes accessed per row activation
system.mem_ctrls0.bytesPerActivate::640-767         2027      1.31%     97.20% # Bytes accessed per row activation
system.mem_ctrls0.bytesPerActivate::768-895         1391      0.90%     98.10% # Bytes accessed per row activation
system.mem_ctrls0.bytesPerActivate::896-1023          977      0.63%     98.74% # Bytes accessed per row activation
system.mem_ctrls0.bytesPerActivate::1024-1151         1954      1.26%    100.00% # Bytes accessed per row activation
system.mem_ctrls0.bytesPerActivate::total       154581                       # Bytes accessed per row activation
system.mem_ctrls0.rdPerTurnAround::samples        33738                       # Reads before turning the bus around for writes
system.mem_ctrls0.rdPerTurnAround::mean      9.779121                       # Reads before turning the bus around for writes
system.mem_ctrls0.rdPerTurnAround::stdev    23.725187                       # Reads before turning the bus around for writes
system.mem_ctrls0.rdPerTurnAround::0-127        33731     99.98%     99.98% # Reads before turning the bus around for writes
system.mem_ctrls0.rdPerTurnAround::128-255            6      0.02%    100.00% # Reads before turning the bus around for writes
system.mem_ctrls0.rdPerTurnAround::3968-4095            1      0.00%    100.00% # Reads before turning the bus around for writes
system.mem_ctrls0.rdPerTurnAround::total        33738                       # Reads before turning the bus around for writes
system.mem_ctrls0.wrPerTurnAround::samples        33738                       # Writes before turning the bus around for reads
system.mem_ctrls0.wrPerTurnAround::mean      5.516480                       # Writes before turning the bus around for reads
system.mem_ctrls0.wrPerTurnAround::gmean     5.384303                       # Writes before turning the bus around for reads
system.mem_ctrls0.wrPerTurnAround::stdev     1.565188                       # Writes before turning the bus around for reads
system.mem_ctrls0.wrPerTurnAround::4-7          31567     93.57%     93.57% # Writes before turning the bus around for reads
system.mem_ctrls0.wrPerTurnAround::8-11          1538      4.56%     98.12% # Writes before turning the bus around for reads
system.mem_ctrls0.wrPerTurnAround::12-15          343      1.02%     99.14% # Writes before turning the bus around for reads
system.mem_ctrls0.wrPerTurnAround::16-19          290      0.86%    100.00% # Writes before turning the bus around for reads
system.mem_ctrls0.wrPerTurnAround::total        33738                       # Writes before turning the bus around for reads
system.mem_ctrls0.totQLat                 12136589683                       # Total ticks spent queuing
system.mem_ctrls0.totMemAccLat            18323020933                       # Total ticks spent from burst creation until serviced by the DRAM
system.mem_ctrls0.totBusLat                1649715000                       # Total ticks spent in databus transfers
system.mem_ctrls0.avgQLat                    36783.90                       # Average queueing delay per DRAM burst
system.mem_ctrls0.avgBusLat                   5000.00                       # Average bus latency per DRAM burst
system.mem_ctrls0.avgMemAccLat               55533.90                       # Average memory access latency per DRAM burst
system.mem_ctrls0.avgRdBW                      226.25                       # Average DRAM read bandwidth in MiByte/s
system.mem_ctrls0.avgWrBW                      127.62                       # Average achieved write bandwidth in MiByte/s
system.mem_ctrls0.avgRdBWSys                   226.27                       # Average system read bandwidth in MiByte/s
system.mem_ctrls0.avgWrBWSys                   127.63                       # Average system write bandwidth in MiByte/s
system.mem_ctrls0.peakBW                     12800.00                       # Theoretical peak bandwidth in MiByte/s
system.mem_ctrls0.busUtil                        2.76                       # Data bus utilization in percentage
system.mem_ctrls0.busUtilRead                    1.77                       # Data bus utilization in percentage for reads
system.mem_ctrls0.busUtilWrite                   1.00                       # Data bus utilization in percentage for writes
system.mem_ctrls0.avgRdQLen                      1.19                       # Average read queue length when enqueuing
system.mem_ctrls0.avgWrQLen                      2.96                       # Average write queue length when enqueuing
system.mem_ctrls0.readRowHits                  249042                       # Number of row buffer hits during reads
system.mem_ctrls0.writeRowHits                 112424                       # Number of row buffer hits during writes
system.mem_ctrls0.readRowHitRate                75.48                       # Row buffer hit rate for reads
system.mem_ctrls0.writeRowHitRate               60.40                       # Row buffer hit rate for writes
system.mem_ctrls0.avgGap                    180842.19                       # Average gap between requests
system.mem_ctrls0.pageHitRate                   70.04                       # Row buffer hit rate, read and write combined
system.mem_ctrls0.memoryStateTime::IDLE   15190753500                       # Time in different power states
system.mem_ctrls0.memoryStateTime::REF     3116360000                       # Time in different power states
system.mem_ctrls0.memoryStateTime::PRE_PDN            0                       # Time in different power states
system.mem_ctrls0.memoryStateTime::ACT    75022433500                       # Time in different power states
system.mem_ctrls0.memoryStateTime::ACT_PDN            0                       # Time in different power states
system.mem_ctrls0.actEnergy::0              590284800                       # Energy for activate commands per rank (pJ)
system.mem_ctrls0.actEnergy::1              578279520                       # Energy for activate commands per rank (pJ)
system.mem_ctrls0.preEnergy::0              322080000                       # Energy for precharge commands per rank (pJ)
system.mem_ctrls0.preEnergy::1              315529500                       # Energy for precharge commands per rank (pJ)
system.mem_ctrls0.readEnergy::0            1291797000                       # Energy for read commands per rank (pJ)
system.mem_ctrls0.readEnergy::1            1281610200                       # Energy for read commands per rank (pJ)
system.mem_ctrls0.writeEnergy::0            604240560                       # Energy for write commands per rank (pJ)
system.mem_ctrls0.writeEnergy::1            601752240                       # Energy for write commands per rank (pJ)
system.mem_ctrls0.refreshEnergy::0         6095600160                       # Energy for refresh commands per rank (pJ)
system.mem_ctrls0.refreshEnergy::1         6095600160                       # Energy for refresh commands per rank (pJ)
system.mem_ctrls0.actBackEnergy::0        38889640800                       # Energy for active background per rank (pJ)
system.mem_ctrls0.actBackEnergy::1        38170142055                       # Energy for active background per rank (pJ)
system.mem_ctrls0.preBackEnergy::0        21882031500                       # Energy for precharge background per rank (pJ)
system.mem_ctrls0.preBackEnergy::1        22513170750                       # Energy for precharge background per rank (pJ)
system.mem_ctrls0.totalEnergy::0          69675674820                       # Total energy per rank (pJ)
system.mem_ctrls0.totalEnergy::1          69556084425                       # Total energy per rank (pJ)
system.mem_ctrls0.averagePower::0          746.581728                       # Core power per rank (mW)
system.mem_ctrls0.averagePower::1          745.300305                       # Core power per rank (mW)
system.mem_ctrls1.bytes_read::ruby.dir_cntrl1     20690624                       # Number of bytes read from this memory
system.mem_ctrls1.bytes_read::total          20690624                       # Number of bytes read from this memory
system.mem_ctrls1.bytes_written::ruby.dir_cntrl1     11493312                       # Number of bytes written to this memory
system.mem_ctrls1.bytes_written::total       11493312                       # Number of bytes written to this memory
system.mem_ctrls1.num_reads::ruby.dir_cntrl1       323291                       # Number of read requests responded to by this memory
system.mem_ctrls1.num_reads::total             323291                       # Number of read requests responded to by this memory
system.mem_ctrls1.num_writes::ruby.dir_cntrl1       179583                       # Number of write requests responded to by this memory
system.mem_ctrls1.num_writes::total            179583                       # Number of write requests responded to by this memory
system.mem_ctrls1.bw_read::ruby.dir_cntrl1    221686788                       # Total read bandwidth from this memory (bytes/s)
system.mem_ctrls1.bw_read::total            221686788                       # Total read bandwidth from this memory (bytes/s)
system.mem_ctrls1.bw_write::ruby.dir_cntrl1    123143479                       # Write bandwidth from this memory (bytes/s)
system.mem_ctrls1.bw_write::total           123143479                       # Write bandwidth from this memory (bytes/s)
system.mem_ctrls1.bw_total::ruby.dir_cntrl1    344830266                       # Total bandwidth to/from this memory (bytes/s)
system.mem_ctrls1.bw_total::total           344830266                       # Total bandwidth to/from this memory (bytes/s)
system.mem_ctrls1.readReqs                     323291                       # Number of read requests accepted
system.mem_ctrls1.writeReqs                    179583                       # Number of write requests accepted
system.mem_ctrls1.readBursts                   323291                       # Number of DRAM read bursts, including those serviced by the write queue
system.mem_ctrls1.writeBursts                  179583                       # Number of DRAM write bursts, including those merged in the write queue
system.mem_ctrls1.bytesReadDRAM              20688576                       # Total number of bytes read from DRAM
system.mem_ctrls1.bytesReadWrQ                   2048                       # Total number of bytes read from write queue
system.mem_ctrls1.bytesWritten               11493312                       # Total number of bytes written to DRAM
system.mem_ctrls1.bytesReadSys               20690624                       # Total read bytes from the system interface side
system.mem_ctrls1.bytesWrittenSys            11493312                       # Total written bytes from the system interface side
system.mem_ctrls1.servicedByWrQ                    32                       # Number of DRAM read bursts serviced by the write queue
system.mem_ctrls1.mergedWrBursts                    0                       # Number of DRAM write bursts merged with an existing one
system.mem_ctrls1.neitherReadNorWriteReqs            0                       # Number of requests that are neither read nor write
system.mem_ctrls1.perBankRdBursts::0            19945                       # Per bank write bursts
system.mem_ctrls1.perBankRdBursts::1            20540                       # Per bank write bursts
system.mem_ctrls1.perBankRdBursts::2            20077                       # Per bank write bursts
system.mem_ctrls1.perBankRdBursts::3            20448                       # Per bank write bursts
system.mem_ctrls1.perBankRdBursts::4            20124                       # Per bank write bursts
system.mem_ctrls1.perBankRdBursts::5            20621                       # Per bank write bursts
system.mem_ctrls1.perBankRdBursts::6            20209                       # Per bank write bursts
system.mem_ctrls1.perBankRdBursts::7            20395                       # Per bank write bursts
system.mem_ctrls1.perBankRdBursts::8            20228                       # Per bank write bursts
system.mem_ctrls1.perBankRdBursts::9            20444                       # Per bank write bursts
system.mem_ctrls1.perBankRdBursts::10           20201                       # Per bank write bursts
system.mem_ctrls1.perBankRdBursts::11           20536                       # Per bank write bursts
system.mem_ctrls1.perBankRdBursts::12           19810                       # Per bank write bursts
system.mem_ctrls1.perBankRdBursts::13           19744                       # Per bank write bursts
system.mem_ctrls1.perBankRdBursts::14           19909                       # Per bank write bursts
system.mem_ctrls1.perBankRdBursts::15           20028                       # Per bank write bursts
system.mem_ctrls1.perBankWrBursts::0            11112                       # Per bank write bursts
system.mem_ctrls1.perBankWrBursts::1            11252                       # Per bank write bursts
system.mem_ctrls1.perBankWrBursts::2            11264                       # Per bank write bursts
system.mem_ctrls1.perBankWrBursts::3            11246                       # Per bank write bursts
system.mem_ctrls1.perBankWrBursts::4            11219                       # Per bank write bursts
system.mem_ctrls1.perBankWrBursts::5            11529                       # Per bank write bursts
system.mem_ctrls1.perBankWrBursts::6            11142                       # Per bank write bursts
system.mem_ctrls1.perBankWrBursts::7            11261                       # Per bank write bursts
system.mem_ctrls1.perBankWrBursts::8            11493                       # Per bank write bursts
system.mem_ctrls1.perBankWrBursts::9            11301                       # Per bank write bursts
system.mem_ctrls1.perBankWrBursts::10           11132                       # Per bank write bursts
system.mem_ctrls1.perBankWrBursts::11           11286                       # Per bank write bursts
system.mem_ctrls1.perBankWrBursts::12           10949                       # Per bank write bursts
system.mem_ctrls1.perBankWrBursts::13           10907                       # Per bank write bursts
system.mem_ctrls1.perBankWrBursts::14           11295                       # Per bank write bursts
system.mem_ctrls1.perBankWrBursts::15           11195                       # Per bank write bursts
system.mem_ctrls1.numRdRetry                     1816                       # Number of times read queue was full causing retry
system.mem_ctrls1.numWrRetry                     1626                       # Number of times write queue was full causing retry
system.mem_ctrls1.totGap                  93331841000                       # Total gap between requests
system.mem_ctrls1.readPktSize::0                    0                       # Read request sizes (log2)
system.mem_ctrls1.readPktSize::1                    0                       # Read request sizes (log2)
system.mem_ctrls1.readPktSize::2                    0                       # Read request sizes (log2)
system.mem_ctrls1.readPktSize::3                    0                       # Read request sizes (log2)
system.mem_ctrls1.readPktSize::4                    0                       # Read request sizes (log2)
system.mem_ctrls1.readPktSize::5                    0                       # Read request sizes (log2)
system.mem_ctrls1.readPktSize::6               323291                       # Read request sizes (log2)
system.mem_ctrls1.writePktSize::0                   0                       # Write request sizes (log2)
system.mem_ctrls1.writePktSize::1                   0                       # Write request sizes (log2)
system.mem_ctrls1.writePktSize::2                   0                       # Write request sizes (log2)
system.mem_ctrls1.writePktSize::3                   0                       # Write request sizes (log2)
system.mem_ctrls1.writePktSize::4                   0                       # Write request sizes (log2)
system.mem_ctrls1.writePktSize::5                   0                       # Write request sizes (log2)
system.mem_ctrls1.writePktSize::6              179583                       # Write request sizes (log2)
system.mem_ctrls1.rdQLenPdf::0                 156346                       # What read queue length does an incoming req see
system.mem_ctrls1.rdQLenPdf::1                  39464                       # What read queue length does an incoming req see
system.mem_ctrls1.rdQLenPdf::2                  30431                       # What read queue length does an incoming req see
system.mem_ctrls1.rdQLenPdf::3                  22269                       # What read queue length does an incoming req see
system.mem_ctrls1.rdQLenPdf::4                  16492                       # What read queue length does an incoming req see
system.mem_ctrls1.rdQLenPdf::5                  12445                       # What read queue length does an incoming req see
system.mem_ctrls1.rdQLenPdf::6                   9238                       # What read queue length does an incoming req see
system.mem_ctrls1.rdQLenPdf::7                   7083                       # What read queue length does an incoming req see
system.mem_ctrls1.rdQLenPdf::8                   5554                       # What read queue length does an incoming req see
system.mem_ctrls1.rdQLenPdf::9                   4251                       # What read queue length does an incoming req see
system.mem_ctrls1.rdQLenPdf::10                  3404                       # What read queue length does an incoming req see
system.mem_ctrls1.rdQLenPdf::11                  2598                       # What read queue length does an incoming req see
system.mem_ctrls1.rdQLenPdf::12                  2128                       # What read queue length does an incoming req see
system.mem_ctrls1.rdQLenPdf::13                  1689                       # What read queue length does an incoming req see
system.mem_ctrls1.rdQLenPdf::14                  1331                       # What read queue length does an incoming req see
system.mem_ctrls1.rdQLenPdf::15                  1075                       # What read queue length does an incoming req see
system.mem_ctrls1.rdQLenPdf::16                   854                       # What read queue length does an incoming req see
system.mem_ctrls1.rdQLenPdf::17                   708                       # What read queue length does an incoming req see
system.mem_ctrls1.rdQLenPdf::18                   587                       # What read queue length does an incoming req see
system.mem_ctrls1.rdQLenPdf::19                   455                       # What read queue length does an incoming req see
system.mem_ctrls1.rdQLenPdf::20                   375                       # What read queue length does an incoming req see
system.mem_ctrls1.rdQLenPdf::21                   340                       # What read queue length does an incoming req see
system.mem_ctrls1.rdQLenPdf::22                   297                       # What read queue length does an incoming req see
system.mem_ctrls1.rdQLenPdf::23                   279                       # What read queue length does an incoming req see
system.mem_ctrls1.rdQLenPdf::24                   228                       # What read queue length does an incoming req see
system.mem_ctrls1.rdQLenPdf::25                   217                       # What read queue length does an incoming req see
system.mem_ctrls1.rdQLenPdf::26                   196                       # What read queue length does an incoming req see
system.mem_ctrls1.rdQLenPdf::27                   190                       # What read queue length does an incoming req see
system.mem_ctrls1.rdQLenPdf::28                   204                       # What read queue length does an incoming req see
system.mem_ctrls1.rdQLenPdf::29                   179                       # What read queue length does an incoming req see
system.mem_ctrls1.rdQLenPdf::30                   224                       # What read queue length does an incoming req see
system.mem_ctrls1.rdQLenPdf::31                  2128                       # What read queue length does an incoming req see
system.mem_ctrls1.wrQLenPdf::0                  32428                       # What write queue length does an incoming req see
system.mem_ctrls1.wrQLenPdf::1                  34654                       # What write queue length does an incoming req see
system.mem_ctrls1.wrQLenPdf::2                  35119                       # What write queue length does an incoming req see
system.mem_ctrls1.wrQLenPdf::3                  35002                       # What write queue length does an incoming req see
system.mem_ctrls1.wrQLenPdf::4                  34596                       # What write queue length does an incoming req see
system.mem_ctrls1.wrQLenPdf::5                   2889                       # What write queue length does an incoming req see
system.mem_ctrls1.wrQLenPdf::6                   2015                       # What write queue length does an incoming req see
system.mem_ctrls1.wrQLenPdf::7                   2880                       # What write queue length does an incoming req see
system.mem_ctrls1.bytesPerActivate::samples       145599                       # Bytes accessed per row activation
system.mem_ctrls1.bytesPerActivate::mean   221.027452                       # Bytes accessed per row activation
system.mem_ctrls1.bytesPerActivate::gmean   165.097741                       # Bytes accessed per row activation
system.mem_ctrls1.bytesPerActivate::stdev   183.117465                       # Bytes accessed per row activation
system.mem_ctrls1.bytesPerActivate::0-127        44625     30.65%     30.65% # Bytes accessed per row activation
system.mem_ctrls1.bytesPerActivate::128-255        41091     28.22%     58.87% # Bytes accessed per row activation
system.mem_ctrls1.bytesPerActivate::256-383        42839     29.42%     88.29% # Bytes accessed per row activation
system.mem_ctrls1.bytesPerActivate::384-511         6525      4.48%     92.78% # Bytes accessed per row activation
system.mem_ctrls1.bytesPerActivate::512-639         4044      2.78%     95.55% # Bytes accessed per row activation
system.mem_ctrls1.bytesPerActivate::640-767         2173      1.49%     97.05% # Bytes accessed per row activation
system.mem_ctrls1.bytesPerActivate::768-895         1426      0.98%     98.02% # Bytes accessed per row activation
system.mem_ctrls1.bytesPerActivate::896-1023          907      0.62%     98.65% # Bytes accessed per row activation
system.mem_ctrls1.bytesPerActivate::1024-1151         1969      1.35%    100.00% # Bytes accessed per row activation
system.mem_ctrls1.bytesPerActivate::total       145599                       # Bytes accessed per row activation
system.mem_ctrls1.rdPerTurnAround::samples        32634                       # Reads before turning the bus around for writes
system.mem_ctrls1.rdPerTurnAround::mean      9.905559                       # Reads before turning the bus around for writes
system.mem_ctrls1.rdPerTurnAround::stdev    19.750879                       # Reads before turning the bus around for writes
system.mem_ctrls1.rdPerTurnAround::0-127        32628     99.98%     99.98% # Reads before turning the bus around for writes
system.mem_ctrls1.rdPerTurnAround::128-255            4      0.01%     99.99% # Reads before turning the bus around for writes
system.mem_ctrls1.rdPerTurnAround::1152-1279            1      0.00%    100.00% # Reads before turning the bus around for writes
system.mem_ctrls1.rdPerTurnAround::2816-2943            1      0.00%    100.00% # Reads before turning the bus around for writes
system.mem_ctrls1.rdPerTurnAround::total        32634                       # Reads before turning the bus around for writes
system.mem_ctrls1.wrPerTurnAround::samples        32634                       # Writes before turning the bus around for reads
system.mem_ctrls1.wrPerTurnAround::mean      5.502942                       # Writes before turning the bus around for reads
system.mem_ctrls1.wrPerTurnAround::gmean     5.375501                       # Writes before turning the bus around for reads
system.mem_ctrls1.wrPerTurnAround::stdev     1.529195                       # Writes before turning the bus around for reads
system.mem_ctrls1.wrPerTurnAround::4-7          30502     93.47%     93.47% # Writes before turning the bus around for reads
system.mem_ctrls1.wrPerTurnAround::8-11          1596      4.89%     98.36% # Writes before turning the bus around for reads
system.mem_ctrls1.wrPerTurnAround::12-15          263      0.81%     99.16% # Writes before turning the bus around for reads
system.mem_ctrls1.wrPerTurnAround::16-19          273      0.84%    100.00% # Writes before turning the bus around for reads
system.mem_ctrls1.wrPerTurnAround::total        32634                       # Writes before turning the bus around for reads
system.mem_ctrls1.totQLat                 11618710614                       # Total ticks spent queuing
system.mem_ctrls1.totMemAccLat            17679816864                       # Total ticks spent from burst creation until serviced by the DRAM
system.mem_ctrls1.totBusLat                1616295000                       # Total ticks spent in databus transfers
system.mem_ctrls1.avgQLat                    35942.42                       # Average queueing delay per DRAM burst
system.mem_ctrls1.avgBusLat                   5000.00                       # Average bus latency per DRAM burst
system.mem_ctrls1.avgMemAccLat               54692.42                       # Average memory access latency per DRAM burst
system.mem_ctrls1.avgRdBW                      221.66                       # Average DRAM read bandwidth in MiByte/s
system.mem_ctrls1.avgWrBW                      123.14                       # Average achieved write bandwidth in MiByte/s
system.mem_ctrls1.avgRdBWSys                   221.69                       # Average system read bandwidth in MiByte/s
system.mem_ctrls1.avgWrBWSys                   123.14                       # Average system write bandwidth in MiByte/s
system.mem_ctrls1.peakBW                     12800.00                       # Theoretical peak bandwidth in MiByte/s
system.mem_ctrls1.busUtil                        2.69                       # Data bus utilization in percentage
system.mem_ctrls1.busUtilRead                    1.73                       # Data bus utilization in percentage for reads
system.mem_ctrls1.busUtilWrite                   0.96                       # Data bus utilization in percentage for writes
system.mem_ctrls1.avgRdQLen                      1.18                       # Average read queue length when enqueuing
system.mem_ctrls1.avgWrQLen                      2.97                       # Average write queue length when enqueuing
system.mem_ctrls1.readRowHits                  245899                       # Number of row buffer hits during reads
system.mem_ctrls1.writeRowHits                 111336                       # Number of row buffer hits during writes
system.mem_ctrls1.readRowHitRate                76.07                       # Row buffer hit rate for reads
system.mem_ctrls1.writeRowHitRate               62.00                       # Row buffer hit rate for writes
system.mem_ctrls1.avgGap                    185596.87                       # Average gap between requests
system.mem_ctrls1.pageHitRate                   71.04                       # Row buffer hit rate, read and write combined
system.mem_ctrls1.memoryStateTime::IDLE   15392717250                       # Time in different power states
system.mem_ctrls1.memoryStateTime::REF     3116360000                       # Time in different power states
system.mem_ctrls1.memoryStateTime::PRE_PDN            0                       # Time in different power states
system.mem_ctrls1.memoryStateTime::ACT    74820130250                       # Time in different power states
system.mem_ctrls1.memoryStateTime::ACT_PDN            0                       # Time in different power states
system.mem_ctrls1.actEnergy::0              556741080                       # Energy for activate commands per rank (pJ)
system.mem_ctrls1.actEnergy::1              543934440                       # Energy for activate commands per rank (pJ)
system.mem_ctrls1.preEnergy::0              303777375                       # Energy for precharge commands per rank (pJ)
system.mem_ctrls1.preEnergy::1              296789625                       # Energy for precharge commands per rank (pJ)
system.mem_ctrls1.readEnergy::0            1266314400                       # Energy for read commands per rank (pJ)
system.mem_ctrls1.readEnergy::1            1254981000                       # Energy for read commands per rank (pJ)
system.mem_ctrls1.writeEnergy::0            583349040                       # Energy for write commands per rank (pJ)
system.mem_ctrls1.writeEnergy::1            580316400                       # Energy for write commands per rank (pJ)
system.mem_ctrls1.refreshEnergy::0         6095600160                       # Energy for refresh commands per rank (pJ)
system.mem_ctrls1.refreshEnergy::1         6095600160                       # Energy for refresh commands per rank (pJ)
system.mem_ctrls1.actBackEnergy::0        38382665985                       # Energy for active background per rank (pJ)
system.mem_ctrls1.actBackEnergy::1        37424928330                       # Energy for active background per rank (pJ)
system.mem_ctrls1.preBackEnergy::0        22326746250                       # Energy for precharge background per rank (pJ)
system.mem_ctrls1.preBackEnergy::1        23166867000                       # Energy for precharge background per rank (pJ)
system.mem_ctrls1.totalEnergy::0          69515194290                       # Total energy per rank (pJ)
system.mem_ctrls1.totalEnergy::1          69363416955                       # Total energy per rank (pJ)
system.mem_ctrls1.averagePower::0          744.862163                       # Core power per rank (mW)
system.mem_ctrls1.averagePower::1          743.235854                       # Core power per rank (mW)
system.mem_ctrls2.bytes_read::ruby.dir_cntrl2     20691776                       # Number of bytes read from this memory
system.mem_ctrls2.bytes_read::total          20691776                       # Number of bytes read from this memory
system.mem_ctrls2.bytes_written::ruby.dir_cntrl2     11493248                       # Number of bytes written to this memory
system.mem_ctrls2.bytes_written::total       11493248                       # Number of bytes written to this memory
system.mem_ctrls2.num_reads::ruby.dir_cntrl2       323309                       # Number of read requests responded to by this memory
system.mem_ctrls2.num_reads::total             323309                       # Number of read requests responded to by this memory
system.mem_ctrls2.num_writes::ruby.dir_cntrl2       179582                       # Number of write requests responded to by this memory
system.mem_ctrls2.num_writes::total            179582                       # Number of write requests responded to by this memory
system.mem_ctrls2.bw_read::ruby.dir_cntrl2    221699131                       # Total read bandwidth from this memory (bytes/s)
system.mem_ctrls2.bw_read::total            221699131                       # Total read bandwidth from this memory (bytes/s)
system.mem_ctrls2.bw_write::ruby.dir_cntrl2    123142793                       # Write bandwidth from this memory (bytes/s)
system.mem_ctrls2.bw_write::total           123142793                       # Write bandwidth from this memory (bytes/s)
system.mem_ctrls2.bw_total::ruby.dir_cntrl2    344841923                       # Total bandwidth to/from this memory (bytes/s)
system.mem_ctrls2.bw_total::total           344841923                       # Total bandwidth to/from this memory (bytes/s)
system.mem_ctrls2.readReqs                     323309                       # Number of read requests accepted
system.mem_ctrls2.writeReqs                    179582                       # Number of write requests accepted
system.mem_ctrls2.readBursts                   323309                       # Number of DRAM read bursts, including those serviced by the write queue
system.mem_ctrls2.writeBursts                  179582                       # Number of DRAM write bursts, including those merged in the write queue
system.mem_ctrls2.bytesReadDRAM              20690752                       # Total number of bytes read from DRAM
system.mem_ctrls2.bytesReadWrQ                   1024                       # Total number of bytes read from write queue
system.mem_ctrls2.bytesWritten               11493120                       # Total number of bytes written to DRAM
system.mem_ctrls2.bytesReadSys               20691776                       # Total read bytes from the system interface side
system.mem_ctrls2.bytesWrittenSys            11493248                       # Total written bytes from the system interface side
system.mem_ctrls2.servicedByWrQ                    16                       # Number of DRAM read bursts serviced by the write queue
system.mem_ctrls2.mergedWrBursts                    0                       # Number of DRAM write bursts merged with an existing one
system.mem_ctrls2.neitherReadNorWriteReqs            0                       # Number of requests that are neither read nor write
system.mem_ctrls2.perBankRdBursts::0            19944                       # Per bank write bursts
system.mem_ctrls2.perBankRdBursts::1            20561                       # Per bank write bursts
system.mem_ctrls2.perBankRdBursts::2            20132                       # Per bank write bursts
system.mem_ctrls2.perBankRdBursts::3            20485                       # Per bank write bursts
system.mem_ctrls2.perBankRdBursts::4            20134                       # Per bank write bursts
system.mem_ctrls2.perBankRdBursts::5            20587                       # Per bank write bursts
system.mem_ctrls2.perBankRdBursts::6            20181                       # Per bank write bursts
system.mem_ctrls2.perBankRdBursts::7            20352                       # Per bank write bursts
system.mem_ctrls2.perBankRdBursts::8            20202                       # Per bank write bursts
system.mem_ctrls2.perBankRdBursts::9            20450                       # Per bank write bursts
system.mem_ctrls2.perBankRdBursts::10           20200                       # Per bank write bursts
system.mem_ctrls2.perBankRdBursts::11           20583                       # Per bank write bursts
system.mem_ctrls2.perBankRdBursts::12           19844                       # Per bank write bursts
system.mem_ctrls2.perBankRdBursts::13           19697                       # Per bank write bursts
system.mem_ctrls2.perBankRdBursts::14           19911                       # Per bank write bursts
system.mem_ctrls2.perBankRdBursts::15           20030                       # Per bank write bursts
system.mem_ctrls2.perBankWrBursts::0            11109                       # Per bank write bursts
system.mem_ctrls2.perBankWrBursts::1            11257                       # Per bank write bursts
system.mem_ctrls2.perBankWrBursts::2            11259                       # Per bank write bursts
system.mem_ctrls2.perBankWrBursts::3            11267                       # Per bank write bursts
system.mem_ctrls2.perBankWrBursts::4            11204                       # Per bank write bursts
system.mem_ctrls2.perBankWrBursts::5            11510                       # Per bank write bursts
system.mem_ctrls2.perBankWrBursts::6            11159                       # Per bank write bursts
system.mem_ctrls2.perBankWrBursts::7            11258                       # Per bank write bursts
system.mem_ctrls2.perBankWrBursts::8            11468                       # Per bank write bursts
system.mem_ctrls2.perBankWrBursts::9            11309                       # Per bank write bursts
system.mem_ctrls2.perBankWrBursts::10           11117                       # Per bank write bursts
system.mem_ctrls2.perBankWrBursts::11           11308                       # Per bank write bursts
system.mem_ctrls2.perBankWrBursts::12           10958                       # Per bank write bursts
system.mem_ctrls2.perBankWrBursts::13           10896                       # Per bank write bursts
system.mem_ctrls2.perBankWrBursts::14           11295                       # Per bank write bursts
system.mem_ctrls2.perBankWrBursts::15           11206                       # Per bank write bursts
system.mem_ctrls2.numRdRetry                     1862                       # Number of times read queue was full causing retry
system.mem_ctrls2.numWrRetry                     1451                       # Number of times write queue was full causing retry
system.mem_ctrls2.totGap                  93332547500                       # Total gap between requests
system.mem_ctrls2.readPktSize::0                    0                       # Read request sizes (log2)
system.mem_ctrls2.readPktSize::1                    0                       # Read request sizes (log2)
system.mem_ctrls2.readPktSize::2                    0                       # Read request sizes (log2)
system.mem_ctrls2.readPktSize::3                    0                       # Read request sizes (log2)
system.mem_ctrls2.readPktSize::4                    0                       # Read request sizes (log2)
system.mem_ctrls2.readPktSize::5                    0                       # Read request sizes (log2)
system.mem_ctrls2.readPktSize::6               323309                       # Read request sizes (log2)
system.mem_ctrls2.writePktSize::0                   0                       # Write request sizes (log2)
system.mem_ctrls2.writePktSize::1                   0                       # Write request sizes (log2)
system.mem_ctrls2.writePktSize::2                   0                       # Write request sizes (log2)
system.mem_ctrls2.writePktSize::3                   0                       # Write request sizes (log2)
system.mem_ctrls2.writePktSize::4                   0                       # Write request sizes (log2)
system.mem_ctrls2.writePktSize::5                   0                       # Write request sizes (log2)
system.mem_ctrls2.writePktSize::6              179582                       # Write request sizes (log2)
system.mem_ctrls2.rdQLenPdf::0                 156315                       # What read queue length does an incoming req see
system.mem_ctrls2.rdQLenPdf::1                  38541                       # What read queue length does an incoming req see
system.mem_ctrls2.rdQLenPdf::2                  30193                       # What read queue length does an incoming req see
system.mem_ctrls2.rdQLenPdf::3                  22292                       # What read queue length does an incoming req see
system.mem_ctrls2.rdQLenPdf::4                  16445                       # What read queue length does an incoming req see
system.mem_ctrls2.rdQLenPdf::5                  12504                       # What read queue length does an incoming req see
system.mem_ctrls2.rdQLenPdf::6                   9553                       # What read queue length does an incoming req see
system.mem_ctrls2.rdQLenPdf::7                   7316                       # What read queue length does an incoming req see
system.mem_ctrls2.rdQLenPdf::8                   5706                       # What read queue length does an incoming req see
system.mem_ctrls2.rdQLenPdf::9                   4405                       # What read queue length does an incoming req see
system.mem_ctrls2.rdQLenPdf::10                  3421                       # What read queue length does an incoming req see
system.mem_ctrls2.rdQLenPdf::11                  2678                       # What read queue length does an incoming req see
system.mem_ctrls2.rdQLenPdf::12                  2013                       # What read queue length does an incoming req see
system.mem_ctrls2.rdQLenPdf::13                  1777                       # What read queue length does an incoming req see
system.mem_ctrls2.rdQLenPdf::14                  1388                       # What read queue length does an incoming req see
system.mem_ctrls2.rdQLenPdf::15                  1072                       # What read queue length does an incoming req see
system.mem_ctrls2.rdQLenPdf::16                   889                       # What read queue length does an incoming req see
system.mem_ctrls2.rdQLenPdf::17                   767                       # What read queue length does an incoming req see
system.mem_ctrls2.rdQLenPdf::18                   567                       # What read queue length does an incoming req see
system.mem_ctrls2.rdQLenPdf::19                   500                       # What read queue length does an incoming req see
system.mem_ctrls2.rdQLenPdf::20                   436                       # What read queue length does an incoming req see
system.mem_ctrls2.rdQLenPdf::21                   373                       # What read queue length does an incoming req see
system.mem_ctrls2.rdQLenPdf::22                   334                       # What read queue length does an incoming req see
system.mem_ctrls2.rdQLenPdf::23                   278                       # What read queue length does an incoming req see
system.mem_ctrls2.rdQLenPdf::24                   271                       # What read queue length does an incoming req see
system.mem_ctrls2.rdQLenPdf::25                   235                       # What read queue length does an incoming req see
system.mem_ctrls2.rdQLenPdf::26                   213                       # What read queue length does an incoming req see
system.mem_ctrls2.rdQLenPdf::27                   200                       # What read queue length does an incoming req see
system.mem_ctrls2.rdQLenPdf::28                   175                       # What read queue length does an incoming req see
system.mem_ctrls2.rdQLenPdf::29                   164                       # What read queue length does an incoming req see
system.mem_ctrls2.rdQLenPdf::30                   166                       # What read queue length does an incoming req see
system.mem_ctrls2.rdQLenPdf::31                  2106                       # What read queue length does an incoming req see
system.mem_ctrls2.wrQLenPdf::0                  32377                       # What write queue length does an incoming req see
system.mem_ctrls2.wrQLenPdf::1                  34508                       # What write queue length does an incoming req see
system.mem_ctrls2.wrQLenPdf::2                  35076                       # What write queue length does an incoming req see
system.mem_ctrls2.wrQLenPdf::3                  34993                       # What write queue length does an incoming req see
system.mem_ctrls2.wrQLenPdf::4                  34665                       # What write queue length does an incoming req see
system.mem_ctrls2.wrQLenPdf::5                   3100                       # What write queue length does an incoming req see
system.mem_ctrls2.wrQLenPdf::6                   2072                       # What write queue length does an incoming req see
system.mem_ctrls2.wrQLenPdf::7                   2791                       # What write queue length does an incoming req see
system.mem_ctrls2.bytesPerActivate::samples       145341                       # Bytes accessed per row activation
system.mem_ctrls2.bytesPerActivate::mean   221.433016                       # Bytes accessed per row activation
system.mem_ctrls2.bytesPerActivate::gmean   165.340766                       # Bytes accessed per row activation
system.mem_ctrls2.bytesPerActivate::stdev   183.415324                       # Bytes accessed per row activation
system.mem_ctrls2.bytesPerActivate::0-127        44567     30.66%     30.66% # Bytes accessed per row activation
system.mem_ctrls2.bytesPerActivate::128-255        40658     27.97%     58.64% # Bytes accessed per row activation
system.mem_ctrls2.bytesPerActivate::256-383        43067     29.63%     88.27% # Bytes accessed per row activation
system.mem_ctrls2.bytesPerActivate::384-511         6513      4.48%     92.75% # Bytes accessed per row activation
system.mem_ctrls2.bytesPerActivate::512-639         4013      2.76%     95.51% # Bytes accessed per row activation
system.mem_ctrls2.bytesPerActivate::640-767         2201      1.51%     97.03% # Bytes accessed per row activation
system.mem_ctrls2.bytesPerActivate::768-895         1405      0.97%     97.99% # Bytes accessed per row activation
system.mem_ctrls2.bytesPerActivate::896-1023          979      0.67%     98.67% # Bytes accessed per row activation
system.mem_ctrls2.bytesPerActivate::1024-1151         1938      1.33%    100.00% # Bytes accessed per row activation
system.mem_ctrls2.bytesPerActivate::total       145341                       # Bytes accessed per row activation
system.mem_ctrls2.rdPerTurnAround::samples        32565                       # Reads before turning the bus around for writes
system.mem_ctrls2.rdPerTurnAround::mean      9.927407                       # Reads before turning the bus around for writes
system.mem_ctrls2.rdPerTurnAround::stdev    19.770536                       # Reads before turning the bus around for writes
system.mem_ctrls2.rdPerTurnAround::0-127        32560     99.98%     99.98% # Reads before turning the bus around for writes
system.mem_ctrls2.rdPerTurnAround::128-255            3      0.01%     99.99% # Reads before turning the bus around for writes
system.mem_ctrls2.rdPerTurnAround::1152-1279            1      0.00%    100.00% # Reads before turning the bus around for writes
system.mem_ctrls2.rdPerTurnAround::2816-2943            1      0.00%    100.00% # Reads before turning the bus around for writes
system.mem_ctrls2.rdPerTurnAround::total        32565                       # Reads before turning the bus around for writes
system.mem_ctrls2.wrPerTurnAround::samples        32565                       # Writes before turning the bus around for reads
system.mem_ctrls2.wrPerTurnAround::mean      5.514509                       # Writes before turning the bus around for reads
system.mem_ctrls2.wrPerTurnAround::gmean     5.381242                       # Writes before turning the bus around for reads
system.mem_ctrls2.wrPerTurnAround::stdev     1.564920                       # Writes before turning the bus around for reads
system.mem_ctrls2.wrPerTurnAround::4-7          30368     93.25%     93.25% # Writes before turning the bus around for reads
system.mem_ctrls2.wrPerTurnAround::8-11          1614      4.96%     98.21% # Writes before turning the bus around for reads
system.mem_ctrls2.wrPerTurnAround::12-15          315      0.97%     99.18% # Writes before turning the bus around for reads
system.mem_ctrls2.wrPerTurnAround::16-19          268      0.82%    100.00% # Writes before turning the bus around for reads
system.mem_ctrls2.wrPerTurnAround::total        32565                       # Writes before turning the bus around for reads
system.mem_ctrls2.totQLat                 11722884003                       # Total ticks spent queuing
system.mem_ctrls2.totMemAccLat            17784627753                       # Total ticks spent from burst creation until serviced by the DRAM
system.mem_ctrls2.totBusLat                1616465000                       # Total ticks spent in databus transfers
system.mem_ctrls2.avgQLat                    36260.87                       # Average queueing delay per DRAM burst
system.mem_ctrls2.avgBusLat                   5000.00                       # Average bus latency per DRAM burst
system.mem_ctrls2.avgMemAccLat               55010.87                       # Average memory access latency per DRAM burst
system.mem_ctrls2.avgRdBW                      221.69                       # Average DRAM read bandwidth in MiByte/s
system.mem_ctrls2.avgWrBW                      123.14                       # Average achieved write bandwidth in MiByte/s
system.mem_ctrls2.avgRdBWSys                   221.70                       # Average system read bandwidth in MiByte/s
system.mem_ctrls2.avgWrBWSys                   123.14                       # Average system write bandwidth in MiByte/s
system.mem_ctrls2.peakBW                     12800.00                       # Theoretical peak bandwidth in MiByte/s
system.mem_ctrls2.busUtil                        2.69                       # Data bus utilization in percentage
system.mem_ctrls2.busUtilRead                    1.73                       # Data bus utilization in percentage for reads
system.mem_ctrls2.busUtilWrite                   0.96                       # Data bus utilization in percentage for writes
system.mem_ctrls2.avgRdQLen                      1.18                       # Average read queue length when enqueuing
system.mem_ctrls2.avgWrQLen                      2.97                       # Average write queue length when enqueuing
system.mem_ctrls2.readRowHits                  246089                       # Number of row buffer hits during reads
system.mem_ctrls2.writeRowHits                 111435                       # Number of row buffer hits during writes
system.mem_ctrls2.readRowHitRate                76.12                       # Row buffer hit rate for reads
system.mem_ctrls2.writeRowHitRate               62.05                       # Row buffer hit rate for writes
system.mem_ctrls2.avgGap                    185592.00                       # Average gap between requests
system.mem_ctrls2.pageHitRate                   71.10                       # Row buffer hit rate, read and write combined
system.mem_ctrls2.memoryStateTime::IDLE   15444509250                       # Time in different power states
system.mem_ctrls2.memoryStateTime::REF     3116360000                       # Time in different power states
system.mem_ctrls2.memoryStateTime::PRE_PDN            0                       # Time in different power states
system.mem_ctrls2.memoryStateTime::ACT    74767049750                       # Time in different power states
system.mem_ctrls2.memoryStateTime::ACT_PDN            0                       # Time in different power states
system.mem_ctrls2.actEnergy::0              555584400                       # Energy for activate commands per rank (pJ)
system.mem_ctrls2.actEnergy::1              543155760                       # Energy for activate commands per rank (pJ)
system.mem_ctrls2.preEnergy::0              303146250                       # Energy for precharge commands per rank (pJ)
system.mem_ctrls2.preEnergy::1              296364750                       # Energy for precharge commands per rank (pJ)
system.mem_ctrls2.readEnergy::0            1266454800                       # Energy for read commands per rank (pJ)
system.mem_ctrls2.readEnergy::1            1255121400                       # Energy for read commands per rank (pJ)
system.mem_ctrls2.writeEnergy::0            583316640                       # Energy for write commands per rank (pJ)
system.mem_ctrls2.writeEnergy::1            580329360                       # Energy for write commands per rank (pJ)
system.mem_ctrls2.refreshEnergy::0         6095600160                       # Energy for refresh commands per rank (pJ)
system.mem_ctrls2.refreshEnergy::1         6095600160                       # Energy for refresh commands per rank (pJ)
system.mem_ctrls2.actBackEnergy::0        38265283035                       # Energy for active background per rank (pJ)
system.mem_ctrls2.actBackEnergy::1        37348066395                       # Energy for active background per rank (pJ)
system.mem_ctrls2.preBackEnergy::0        22429713750                       # Energy for precharge background per rank (pJ)
system.mem_ctrls2.preBackEnergy::1        23234289750                       # Energy for precharge background per rank (pJ)
system.mem_ctrls2.totalEnergy::0          69499099035                       # Total energy per rank (pJ)
system.mem_ctrls2.totalEnergy::1          69352927575                       # Total energy per rank (pJ)
system.mem_ctrls2.averagePower::0          744.689701                       # Core power per rank (mW)
system.mem_ctrls2.averagePower::1          743.123459                       # Core power per rank (mW)
system.mem_ctrls3.bytes_read::ruby.dir_cntrl3     20672320                       # Number of bytes read from this memory
system.mem_ctrls3.bytes_read::total          20672320                       # Number of bytes read from this memory
system.mem_ctrls3.bytes_written::ruby.dir_cntrl3     11492032                       # Number of bytes written to this memory
system.mem_ctrls3.bytes_written::total       11492032                       # Number of bytes written to this memory
system.mem_ctrls3.num_reads::ruby.dir_cntrl3       323005                       # Number of read requests responded to by this memory
system.mem_ctrls3.num_reads::total             323005                       # Number of read requests responded to by this memory
system.mem_ctrls3.num_writes::ruby.dir_cntrl3       179563                       # Number of write requests responded to by this memory
system.mem_ctrls3.num_writes::total            179563                       # Number of write requests responded to by this memory
system.mem_ctrls3.bw_read::ruby.dir_cntrl3    221490672                       # Total read bandwidth from this memory (bytes/s)
system.mem_ctrls3.bw_read::total            221490672                       # Total read bandwidth from this memory (bytes/s)
system.mem_ctrls3.bw_write::ruby.dir_cntrl3    123129764                       # Write bandwidth from this memory (bytes/s)
system.mem_ctrls3.bw_write::total           123129764                       # Write bandwidth from this memory (bytes/s)
system.mem_ctrls3.bw_total::ruby.dir_cntrl3    344620436                       # Total bandwidth to/from this memory (bytes/s)
system.mem_ctrls3.bw_total::total           344620436                       # Total bandwidth to/from this memory (bytes/s)
system.mem_ctrls3.readReqs                     323006                       # Number of read requests accepted
system.mem_ctrls3.writeReqs                    179563                       # Number of write requests accepted
system.mem_ctrls3.readBursts                   323006                       # Number of DRAM read bursts, including those serviced by the write queue
system.mem_ctrls3.writeBursts                  179563                       # Number of DRAM write bursts, including those merged in the write queue
system.mem_ctrls3.bytesReadDRAM              20671680                       # Total number of bytes read from DRAM
system.mem_ctrls3.bytesReadWrQ                    704                       # Total number of bytes read from write queue
system.mem_ctrls3.bytesWritten               11492032                       # Total number of bytes written to DRAM
system.mem_ctrls3.bytesReadSys               20672384                       # Total read bytes from the system interface side
system.mem_ctrls3.bytesWrittenSys            11492032                       # Total written bytes from the system interface side
system.mem_ctrls3.servicedByWrQ                    11                       # Number of DRAM read bursts serviced by the write queue
system.mem_ctrls3.mergedWrBursts                    0                       # Number of DRAM write bursts merged with an existing one
system.mem_ctrls3.neitherReadNorWriteReqs            0                       # Number of requests that are neither read nor write
system.mem_ctrls3.perBankRdBursts::0            19933                       # Per bank write bursts
system.mem_ctrls3.perBankRdBursts::1            20571                       # Per bank write bursts
system.mem_ctrls3.perBankRdBursts::2            20032                       # Per bank write bursts
system.mem_ctrls3.perBankRdBursts::3            20474                       # Per bank write bursts
system.mem_ctrls3.perBankRdBursts::4            20085                       # Per bank write bursts
system.mem_ctrls3.perBankRdBursts::5            20525                       # Per bank write bursts
system.mem_ctrls3.perBankRdBursts::6            20228                       # Per bank write bursts
system.mem_ctrls3.perBankRdBursts::7            20344                       # Per bank write bursts
system.mem_ctrls3.perBankRdBursts::8            20218                       # Per bank write bursts
system.mem_ctrls3.perBankRdBursts::9            20433                       # Per bank write bursts
system.mem_ctrls3.perBankRdBursts::10           20223                       # Per bank write bursts
system.mem_ctrls3.perBankRdBursts::11           20483                       # Per bank write bursts
system.mem_ctrls3.perBankRdBursts::12           19799                       # Per bank write bursts
system.mem_ctrls3.perBankRdBursts::13           19677                       # Per bank write bursts
system.mem_ctrls3.perBankRdBursts::14           19934                       # Per bank write bursts
system.mem_ctrls3.perBankRdBursts::15           20036                       # Per bank write bursts
system.mem_ctrls3.perBankWrBursts::0            11109                       # Per bank write bursts
system.mem_ctrls3.perBankWrBursts::1            11267                       # Per bank write bursts
system.mem_ctrls3.perBankWrBursts::2            11264                       # Per bank write bursts
system.mem_ctrls3.perBankWrBursts::3            11240                       # Per bank write bursts
system.mem_ctrls3.perBankWrBursts::4            11213                       # Per bank write bursts
system.mem_ctrls3.perBankWrBursts::5            11513                       # Per bank write bursts
system.mem_ctrls3.perBankWrBursts::6            11147                       # Per bank write bursts
system.mem_ctrls3.perBankWrBursts::7            11253                       # Per bank write bursts
system.mem_ctrls3.perBankWrBursts::8            11459                       # Per bank write bursts
system.mem_ctrls3.perBankWrBursts::9            11307                       # Per bank write bursts
system.mem_ctrls3.perBankWrBursts::10           11117                       # Per bank write bursts
system.mem_ctrls3.perBankWrBursts::11           11318                       # Per bank write bursts
system.mem_ctrls3.perBankWrBursts::12           10960                       # Per bank write bursts
system.mem_ctrls3.perBankWrBursts::13           10899                       # Per bank write bursts
system.mem_ctrls3.perBankWrBursts::14           11296                       # Per bank write bursts
system.mem_ctrls3.perBankWrBursts::15           11201                       # Per bank write bursts
system.mem_ctrls3.numRdRetry                     1370                       # Number of times read queue was full causing retry
system.mem_ctrls3.numWrRetry                     1419                       # Number of times write queue was full causing retry
system.mem_ctrls3.totGap                  93331947500                       # Total gap between requests
system.mem_ctrls3.readPktSize::0                    0                       # Read request sizes (log2)
system.mem_ctrls3.readPktSize::1                    0                       # Read request sizes (log2)
system.mem_ctrls3.readPktSize::2                    0                       # Read request sizes (log2)
system.mem_ctrls3.readPktSize::3                    0                       # Read request sizes (log2)
system.mem_ctrls3.readPktSize::4                    0                       # Read request sizes (log2)
system.mem_ctrls3.readPktSize::5                    0                       # Read request sizes (log2)
system.mem_ctrls3.readPktSize::6               323006                       # Read request sizes (log2)
system.mem_ctrls3.writePktSize::0                   0                       # Write request sizes (log2)
system.mem_ctrls3.writePktSize::1                   0                       # Write request sizes (log2)
system.mem_ctrls3.writePktSize::2                   0                       # Write request sizes (log2)
system.mem_ctrls3.writePktSize::3                   0                       # Write request sizes (log2)
system.mem_ctrls3.writePktSize::4                   0                       # Write request sizes (log2)
system.mem_ctrls3.writePktSize::5                   0                       # Write request sizes (log2)
system.mem_ctrls3.writePktSize::6              179563                       # Write request sizes (log2)
system.mem_ctrls3.rdQLenPdf::0                 156050                       # What read queue length does an incoming req see
system.mem_ctrls3.rdQLenPdf::1                  38938                       # What read queue length does an incoming req see
system.mem_ctrls3.rdQLenPdf::2                  30298                       # What read queue length does an incoming req see
system.mem_ctrls3.rdQLenPdf::3                  22251                       # What read queue length does an incoming req see
system.mem_ctrls3.rdQLenPdf::4                  16586                       # What read queue length does an incoming req see
system.mem_ctrls3.rdQLenPdf::5                  12764                       # What read queue length does an incoming req see
system.mem_ctrls3.rdQLenPdf::6                   9696                       # What read queue length does an incoming req see
system.mem_ctrls3.rdQLenPdf::7                   7406                       # What read queue length does an incoming req see
system.mem_ctrls3.rdQLenPdf::8                   5719                       # What read queue length does an incoming req see
system.mem_ctrls3.rdQLenPdf::9                   4350                       # What read queue length does an incoming req see
system.mem_ctrls3.rdQLenPdf::10                  3430                       # What read queue length does an incoming req see
system.mem_ctrls3.rdQLenPdf::11                  2638                       # What read queue length does an incoming req see
system.mem_ctrls3.rdQLenPdf::12                  2081                       # What read queue length does an incoming req see
system.mem_ctrls3.rdQLenPdf::13                  1734                       # What read queue length does an incoming req see
system.mem_ctrls3.rdQLenPdf::14                  1391                       # What read queue length does an incoming req see
system.mem_ctrls3.rdQLenPdf::15                  1094                       # What read queue length does an incoming req see
system.mem_ctrls3.rdQLenPdf::16                   864                       # What read queue length does an incoming req see
system.mem_ctrls3.rdQLenPdf::17                   703                       # What read queue length does an incoming req see
system.mem_ctrls3.rdQLenPdf::18                   553                       # What read queue length does an incoming req see
system.mem_ctrls3.rdQLenPdf::19                   453                       # What read queue length does an incoming req see
system.mem_ctrls3.rdQLenPdf::20                   401                       # What read queue length does an incoming req see
system.mem_ctrls3.rdQLenPdf::21                   343                       # What read queue length does an incoming req see
system.mem_ctrls3.rdQLenPdf::22                   284                       # What read queue length does an incoming req see
system.mem_ctrls3.rdQLenPdf::23                   244                       # What read queue length does an incoming req see
system.mem_ctrls3.rdQLenPdf::24                   225                       # What read queue length does an incoming req see
[...]
system.ruby.L2Cache_Controller.MT_MB.L1_PUTX::total           50                      
system.ruby.L2Cache_Controller.MT_MB.Exclusive_Unblock |      153018      5.69%      5.69% |       82899      3.08%      8.77% |       81702      3.04%     11.80% |       82660      3.07%     14.88% |       81779      3.04%     17.91% |       81123      3.01%     20.93% |       81174      3.02%     23.95% |       80814      3.00%     26.95% |       81127      3.01%     29.96% |       82226      3.06%     33.02% |       83568      3.11%     36.13% |       82751      3.08%     39.20% |       82221      3.06%     42.26% |       80786      3.00%     45.26% |       80099      2.98%     48.24% |       80493      2.99%     51.23% |       81519      3.03%     54.26% |       81168      3.02%     57.27% |       81866      3.04%     60.32% |       82157      3.05%     63.37% |       81838      3.04%     66.41% |       84036      3.12%     69.53% |       81806      3.04%     72.57% |       81373      3.02%     75.60% |       81343      3.02%     78.62% |       81686      3.04%     81.66% |       81411      3.03%     84.68% |       81226      3.02%     87.70% |       81394      3.02%     90.73% |       80787      3.00%     93.73% |       83516      3.10%     96.83% |       85270      3.17%    100.00%
system.ruby.L2Cache_Controller.MT_MB.Exclusive_Unblock::total      2690836                      
system.ruby.L2Cache_Controller.MT_IIB.L1_GETS |           0      0.00%      0.00% |           0      0.00%      0.00% |           0      0.00%      0.00% |           0      0.00%      0.00% |           0      0.00%      0.00% |           0      0.00%      0.00% |           1     10.00%     10.00% |           0      0.00%     10.00% |           0      0.00%     10.00% |           0      0.00%     10.00% |           0      0.00%     10.00% |           0      0.00%     10.00% |           0      0.00%     10.00% |           0      0.00%     10.00% |           3     30.00%     40.00% |           0      0.00%     40.00% |           1     10.00%     50.00% |           0      0.00%     50.00% |           0      0.00%     50.00% |           0      0.00%     50.00% |           0      0.00%     50.00% |           0      0.00%     50.00% |           2     20.00%     70.00% |           1     10.00%     80.00% |           1     10.00%     90.00% |           0      0.00%     90.00% |           0      0.00%     90.00% |           0      0.00%     90.00% |           0      0.00%     90.00% |           0      0.00%     90.00% |           1     10.00%    100.00% |           0      0.00%    100.00%
system.ruby.L2Cache_Controller.MT_IIB.L1_GETS::total           10                      
system.ruby.L2Cache_Controller.MT_IIB.L1_PUTX |           3      1.04%      1.04% |           1      0.35%      1.38% |           6      2.08%      3.46% |          11      3.81%      7.27% |           4      1.38%      8.65% |           9      3.11%     11.76% |           7      2.42%     14.19% |          10      3.46%     17.65% |          10      3.46%     21.11% |           3      1.04%     22.15% |          10      3.46%     25.61% |          11      3.81%     29.41% |          10      3.46%     32.87% |          10      3.46%     36.33% |          10      3.46%     39.79% |           7      2.42%     42.21% |          11      3.81%     46.02% |           8      2.77%     48.79% |          10      3.46%     52.25% |          13      4.50%     56.75% |          12      4.15%     60.90% |           8      2.77%     63.67% |           6      2.08%     65.74% |          10      3.46%     69.20% |          14      4.84%     74.05% |          14      4.84%     78.89% |          11      3.81%     82.70% |          13      4.50%     87.20% |           6      2.08%     89.27% |           8      2.77%     92.04% |           5      1.73%     93.77% |          18      6.23%    100.00%
system.ruby.L2Cache_Controller.MT_IIB.L1_PUTX::total          289                      
system.ruby.L2Cache_Controller.MT_IIB.WB_Data |           0      0.00%      0.00% |           0      0.00%      0.00% |           0      0.00%      0.00% |           0      0.00%      0.00% |           0      0.00%      0.00% |           0      0.00%      0.00% |           0      0.00%      0.00% |           0      0.00%      0.00% |           0      0.00%      0.00% |           0      0.00%      0.00% |           0      0.00%      0.00% |           0      0.00%      0.00% |           0      0.00%      0.00% |           0      0.00%      0.00% |           0      0.00%      0.00% |           0      0.00%      0.00% |           0      0.00%      0.00% |           0      0.00%      0.00% |           0      0.00%      0.00% |           0      0.00%      0.00% |           0      0.00%      0.00% |           0      0.00%      0.00% |           0      0.00%      0.00% |           0      0.00%      0.00% |           0      0.00%      0.00% |           2    100.00%    100.00% |           0      0.00%    100.00% |           0      0.00%    100.00% |           0      0.00%    100.00% |           0      0.00%    100.00% |           0      0.00%    100.00% |           0      0.00%    100.00%
system.ruby.L2Cache_Controller.MT_IIB.WB_Data::total            2                      
system.ruby.L2Cache_Controller.MT_IIB.WB_Data_clean |        1832      3.09%      3.09% |        1838      3.10%      6.18% |        1828      3.08%      9.26% |        1798      3.03%     12.29% |        1853      3.12%     15.41% |        1858      3.13%     18.54% |        1878      3.16%     21.71% |        1864      3.14%     24.85% |        1822      3.07%     27.92% |        1819      3.06%     30.98% |        1860      3.13%     34.11% |        1852      3.12%     37.23% |        1863      3.14%     40.37% |        1862      3.14%     43.51% |        1904      3.21%     46.72% |        1904      3.21%     49.92% |        1934      3.26%     53.18% |        1850      3.12%     56.30% |        1881      3.17%     59.47% |        1873      3.16%     62.62% |        1831      3.08%     65.71% |        1826      3.08%     68.78% |        1884      3.17%     71.96% |        1850      3.12%     75.07% |        1863      3.14%     78.21% |        1856      3.13%     81.34% |        1866      3.14%     84.48% |        1814      3.06%     87.54% |        1883      3.17%     90.71% |        1812      3.05%     93.76% |        1878      3.16%     96.93% |        1825      3.07%    100.00%
system.ruby.L2Cache_Controller.MT_IIB.WB_Data_clean::total        59361                      
system.ruby.L2Cache_Controller.MT_IIB.Unblock |          17      0.86%      0.86% |          26      1.32%      2.18% |          35      1.77%      3.95% |          65      3.29%      7.24% |          38      1.92%      9.16% |          63      3.19%     12.35% |          71      3.59%     15.95% |          60      3.04%     18.99% |         102      5.16%     24.15% |          67      3.39%     27.54% |          45      2.28%     29.82% |          53      2.68%     32.51% |          48      2.43%     34.94% |          80      4.05%     38.99% |          70      3.54%     42.53% |          40      2.03%     44.56% |          57      2.89%     47.44% |         107      5.42%     52.86% |          76      3.85%     56.71% |          63      3.19%     59.90% |         107      5.42%     65.32% |          88      4.46%     69.77% |          75      3.80%     73.57% |          49      2.48%     76.05% |          58      2.94%     78.99% |          62      3.14%     82.13% |          55      2.78%     84.91% |          70      3.54%     88.46% |          36      1.82%     90.28% |          77      3.90%     94.18% |          48      2.43%     96.61% |          67      3.39%    100.00%
system.ruby.L2Cache_Controller.MT_IIB.Unblock::total         1975                      
system.ruby.L2Cache_Controller.MT_IB.L1_PUTX |           0      0.00%      0.00% |           0      0.00%      0.00% |           0      0.00%      0.00% |           0      0.00%      0.00% |           0      0.00%      0.00% |           0      0.00%      0.00% |           0      0.00%      0.00% |           0      0.00%      0.00% |           0      0.00%      0.00% |           0      0.00%      0.00% |           0      0.00%      0.00% |           0      0.00%      0.00% |           0      0.00%      0.00% |           0      0.00%      0.00% |           0      0.00%      0.00% |           0      0.00%      0.00% |           0      0.00%      0.00% |           0      0.00%      0.00% |           0      0.00%      0.00% |           0      0.00%      0.00% |           0      0.00%      0.00% |           0      0.00%      0.00% |           0      0.00%      0.00% |           0      0.00%      0.00% |           0      0.00%      0.00% |           0      0.00%      0.00% |           0      0.00%      0.00% |           0      0.00%      0.00% |           0      0.00%      0.00% |           1    100.00%    100.00% |           0      0.00%    100.00% |           0      0.00%    100.00%
system.ruby.L2Cache_Controller.MT_IB.L1_PUTX::total            1                      
system.ruby.L2Cache_Controller.MT_IB.WB_Data_clean |          17      0.86%      0.86% |          26      1.32%      2.18% |          35      1.77%      3.95% |          65      3.29%      7.24% |          38      1.92%      9.16% |          63      3.19%     12.35% |          71      3.59%     15.95% |          60      3.04%     18.99% |         102      5.16%     24.15% |          67      3.39%     27.54% |          45      2.28%     29.82% |          53      2.68%     32.51% |          48      2.43%     34.94% |          80      4.05%     38.99% |          70      3.54%     42.53% |          40      2.03%     44.56% |          57      2.89%     47.44% |         107      5.42%     52.86% |          76      3.85%     56.71% |          63      3.19%     59.90% |         107      5.42%     65.32% |          88      4.46%     69.77% |          75      3.80%     73.57% |          49      2.48%     76.05% |          58      2.94%     78.99% |          62      3.14%     82.13% |          55      2.78%     84.91% |          70      3.54%     88.46% |          36      1.82%     90.28% |          77      3.90%     94.18% |          48      2.43%     96.61% |          67      3.39%    100.00%
system.ruby.L2Cache_Controller.MT_IB.WB_Data_clean::total         1975                      
system.ruby.L2Cache_Controller.MT_SB.L1_GETS |           0      0.00%      0.00% |           0      0.00%      0.00% |           0      0.00%      0.00% |           0      0.00%      0.00% |           0      0.00%      0.00% |           0      0.00%      0.00% |           0      0.00%      0.00% |           1    100.00%    100.00% |           0      0.00%    100.00% |           0      0.00%    100.00% |           0      0.00%    100.00% |           0      0.00%    100.00% |           0      0.00%    100.00% |           0      0.00%    100.00% |           0      0.00%    100.00% |           0      0.00%    100.00% |           0      0.00%    100.00% |           0      0.00%    100.00% |           0      0.00%    100.00% |           0      0.00%    100.00% |           0      0.00%    100.00% |           0      0.00%    100.00% |           0      0.00%    100.00% |           0      0.00%    100.00% |           0      0.00%    100.00% |           0      0.00%    100.00% |           0      0.00%    100.00% |           0      0.00%    100.00% |           0      0.00%    100.00% |           0      0.00%    100.00% |           0      0.00%    100.00% |           0      0.00%    100.00%
system.ruby.L2Cache_Controller.MT_SB.L1_GETS::total            1                      
system.ruby.L2Cache_Controller.MT_SB.L1_PUTX |           1     10.00%     10.00% |           0      0.00%     10.00% |           0      0.00%     10.00% |           0      0.00%     10.00% |           0      0.00%     10.00% |           0      0.00%     10.00% |           0      0.00%     10.00% |           0      0.00%     10.00% |           0      0.00%     10.00% |           0      0.00%     10.00% |           0      0.00%     10.00% |           0      0.00%     10.00% |           0      0.00%     10.00% |           2     20.00%     30.00% |           0      0.00%     30.00% |           2     20.00%     50.00% |           1     10.00%     60.00% |           1     10.00%     70.00% |           1     10.00%     80.00% |           0      0.00%     80.00% |           0      0.00%     80.00% |           0      0.00%     80.00% |           0      0.00%     80.00% |           2     20.00%    100.00% |           0      0.00%    100.00% |           0      0.00%    100.00% |           0      0.00%    100.00% |           0      0.00%    100.00% |           0      0.00%    100.00% |           0      0.00%    100.00% |           0      0.00%    100.00% |           0      0.00%    100.00%
system.ruby.L2Cache_Controller.MT_SB.L1_PUTX::total           10                      
system.ruby.L2Cache_Controller.MT_SB.Unblock |        1832      3.09%      3.09% |        1838      3.10%      6.18% |        1828      3.08%      9.26% |        1798      3.03%     12.29% |        1853      3.12%     15.41% |        1858      3.13%     18.54% |        1878      3.16%     21.71% |        1864      3.14%     24.85% |        1822      3.07%     27.91% |        1819      3.06%     30.98% |        1860      3.13%     34.11% |        1852      3.12%     37.23% |        1863      3.14%     40.37% |        1862      3.14%     43.51% |        1904      3.21%     46.71% |        1904      3.21%     49.92% |        1934      3.26%     53.18% |        1850      3.12%     56.30% |        1881      3.17%     59.46% |        1873      3.16%     62.62% |        1831      3.08%     65.70% |        1826      3.08%     68.78% |        1884      3.17%     71.95% |        1850      3.12%     75.07% |        1863      3.14%     78.21% |        1858      3.13%     81.34% |        1866      3.14%     84.48% |        1814      3.06%     87.54% |        1883      3.17%     90.71% |        1812      3.05%     93.76% |        1878      3.16%     96.93% |        1825      3.07%    100.00%
system.ruby.L2Cache_Controller.MT_SB.Unblock::total        59363                      
system.ruby.SimicsNetworkPortInterface_Controller.MessageSend |      517989     19.63%     19.63% |     1319484     50.00%     69.63% |       95758      3.63%     73.26% |      107688      4.08%     77.34% |       99100      3.76%     81.09% |      109950      4.17%     85.26% |       99897      3.79%     89.04% |      106307      4.03%     93.07% |       90810      3.44%     96.51% |       91985      3.49%    100.00% |           0      0.00%    100.00% |           0      0.00%    100.00% |           0      0.00%    100.00% |           0      0.00%    100.00% |           0      0.00%    100.00% |           0      0.00%    100.00% |           0      0.00%    100.00% |           0      0.00%    100.00% |           0      0.00%    100.00% |           0      0.00%    100.00% |           0      0.00%    100.00% |           0      0.00%    100.00% |           0      0.00%    100.00% |           0      0.00%    100.00% |           0      0.00%    100.00% |           0      0.00%    100.00% |           0      0.00%    100.00% |           0      0.00%    100.00% |           0      0.00%    100.00% |           0      0.00%    100.00% |           0      0.00%    100.00% |           0      0.00%    100.00%
system.ruby.SimicsNetworkPortInterface_Controller.MessageSend::total      2638968                      
system.ruby.SimicsNetworkPortInterface_Controller.MessageRecv |      517989     19.63%     19.63% |     1319484     50.00%     69.63% |       95758      3.63%     73.26% |      107688      4.08%     77.34% |       99100      3.76%     81.09% |      109950      4.17%     85.26% |       99897      3.79%     89.04% |      106307      4.03%     93.07% |       90810      3.44%     96.51% |       91985      3.49%    100.00% |           0      0.00%    100.00% |           0      0.00%    100.00% |           0      0.00%    100.00% |           0      0.00%    100.00% |           0      0.00%    100.00% |           0      0.00%    100.00% |           0      0.00%    100.00% |           0      0.00%    100.00% |           0      0.00%    100.00% |           0      0.00%    100.00% |           0      0.00%    100.00% |           0      0.00%    100.00% |           0      0.00%    100.00% |           0      0.00%    100.00% |           0      0.00%    100.00% |           0      0.00%    100.00% |           0      0.00%    100.00% |           0      0.00%    100.00% |           0      0.00%    100.00% |           0      0.00%    100.00% |           0      0.00%    100.00% |           0      0.00%    100.00%
system.ruby.SimicsNetworkPortInterface_Controller.MessageRecv::total      2638968                      
system.ruby.SimicsNetworkPortInterface_Controller.A.MessageSend |      517989     19.63%     19.63% |     1319484     50.00%     69.63% |       95758      3.63%     73.26% |      107688      4.08%     77.34% |       99100      3.76%     81.09% |      109950      4.17%     85.26% |       99897      3.79%     89.04% |      106307      4.03%     93.07% |       90810      3.44%     96.51% |       91985      3.49%    100.00% |           0      0.00%    100.00% |           0      0.00%    100.00% |           0      0.00%    100.00% |           0      0.00%    100.00% |           0      0.00%    100.00% |           0      0.00%    100.00% |           0      0.00%    100.00% |           0      0.00%    100.00% |           0      0.00%    100.00% |           0      0.00%    100.00% |           0      0.00%    100.00% |           0      0.00%    100.00% |           0      0.00%    100.00% |           0      0.00%    100.00% |           0      0.00%    100.00% |           0      0.00%    100.00% |           0      0.00%    100.00% |           0      0.00%    100.00% |           0      0.00%    100.00% |           0      0.00%    100.00% |           0      0.00%    100.00% |           0      0.00%    100.00%
system.ruby.SimicsNetworkPortInterface_Controller.A.MessageSend::total      2638968                      
system.ruby.SimicsNetworkPortInterface_Controller.A.MessageRecv |      517989     19.63%     19.63% |     1319484     50.00%     69.63% |       95758      3.63%     73.26% |      107688      4.08%     77.34% |       99100      3.76%     81.09% |      109950      4.17%     85.26% |       99897      3.79%     89.04% |      106307      4.03%     93.07% |       90810      3.44%     96.51% |       91985      3.49%    100.00% |           0      0.00%    100.00% |           0      0.00%    100.00% |           0      0.00%    100.00% |           0      0.00%    100.00% |           0      0.00%    100.00% |           0      0.00%    100.00% |           0      0.00%    100.00% |           0      0.00%    100.00% |           0      0.00%    100.00% |           0      0.00%    100.00% |           0      0.00%    100.00% |           0      0.00%    100.00% |           0      0.00%    100.00% |           0      0.00%    100.00% |           0      0.00%    100.00% |           0      0.00%    100.00% |           0      0.00%    100.00% |           0      0.00%    100.00% |           0      0.00%    100.00% |           0      0.00%    100.00% |           0      0.00%    100.00% |           0      0.00%    100.00%
system.ruby.SimicsNetworkPortInterface_Controller.A.MessageRecv::total      2638968                      
system.switch_cpus.kern.inst.arm                    0                       # number of arm instructions executed
system.switch_cpus.kern.inst.quiesce                0                       # number of quiesce instructions executed

---------- End Simulation Statistics   ----------
