
---------- Begin Simulation Statistics ----------
sim_seconds                                  0.061568                       # Number of seconds simulated
sim_ticks                                 61567562500                       # Number of ticks simulated
final_tick                               5237735641000                       # Number of ticks from beginning of simulation (restored from checkpoints and never reset)
sim_freq                                 1000000000000                       # Frequency of simulated ticks
host_inst_rate                                  36932                       # Simulator instruction rate (inst/s)
host_op_rate                                    63795                       # Simulator op (including micro ops) rate (op/s)
host_tick_rate                               79943709                       # Simulator tick rate (ticks/s)
host_mem_usage                                3540196                       # Number of bytes of host memory used
host_seconds                                   770.14                       # Real time elapsed on the host
sim_insts                                    28442912                       # Number of instructions simulated
sim_ops                                      49130819                       # Number of ops (including micro ops) simulated
system.voltage_domain.voltage                       1                       # Voltage in Volts
system.clk_domain.clock                           500                       # Clock period in ticks
system.mem_ctrls0.bytes_read::ruby.dir_cntrl0     12610944                       # Number of bytes read from this memory
system.mem_ctrls0.bytes_read::total          12610944                       # Number of bytes read from this memory
system.mem_ctrls0.bytes_written::ruby.dir_cntrl0      8056576                       # Number of bytes written to this memory
system.mem_ctrls0.bytes_written::total        8056576                       # Number of bytes written to this memory
system.mem_ctrls0.num_reads::ruby.dir_cntrl0       197046                       # Number of read requests responded to by this memory
system.mem_ctrls0.num_reads::total             197046                       # Number of read requests responded to by this memory
system.mem_ctrls0.num_writes::ruby.dir_cntrl0       125884                       # Number of write requests responded to by this memory
system.mem_ctrls0.num_writes::total            125884                       # Number of write requests responded to by this memory
system.mem_ctrls0.bw_read::ruby.dir_cntrl0    204830977                       # Total read bandwidth from this memory (bytes/s)
system.mem_ctrls0.bw_read::total            204830977                       # Total read bandwidth from this memory (bytes/s)
system.mem_ctrls0.bw_write::ruby.dir_cntrl0    130857479                       # Write bandwidth from this memory (bytes/s)
system.mem_ctrls0.bw_write::total           130857479                       # Write bandwidth from this memory (bytes/s)
system.mem_ctrls0.bw_total::ruby.dir_cntrl0    335688456                       # Total bandwidth to/from this memory (bytes/s)
system.mem_ctrls0.bw_total::total           335688456                       # Total bandwidth to/from this memory (bytes/s)
system.mem_ctrls0.readReqs                     197046                       # Number of read requests accepted
system.mem_ctrls0.writeReqs                    125884                       # Number of write requests accepted
system.mem_ctrls0.readBursts                   197046                       # Number of DRAM read bursts, including those serviced by the write queue
system.mem_ctrls0.writeBursts                  125884                       # Number of DRAM write bursts, including those merged in the write queue
system.mem_ctrls0.bytesReadDRAM              12609536                       # Total number of bytes read from DRAM
system.mem_ctrls0.bytesReadWrQ                   1408                       # Total number of bytes read from write queue
system.mem_ctrls0.bytesWritten                8056320                       # Total number of bytes written to DRAM
system.mem_ctrls0.bytesReadSys               12610944                       # Total read bytes from the system interface side
system.mem_ctrls0.bytesWrittenSys             8056576                       # Total written bytes from the system interface side
system.mem_ctrls0.servicedByWrQ                    22                       # Number of DRAM read bursts serviced by the write queue
system.mem_ctrls0.mergedWrBursts                    0                       # Number of DRAM write bursts merged with an existing one
system.mem_ctrls0.neitherReadNorWriteReqs            0                       # Number of requests that are neither read nor write
system.mem_ctrls0.perBankRdBursts::0            12044                       # Per bank write bursts
system.mem_ctrls0.perBankRdBursts::1            12163                       # Per bank write bursts
system.mem_ctrls0.perBankRdBursts::2            12105                       # Per bank write bursts
system.mem_ctrls0.perBankRdBursts::3            12454                       # Per bank write bursts
system.mem_ctrls0.perBankRdBursts::4            12242                       # Per bank write bursts
system.mem_ctrls0.perBankRdBursts::5            12286                       # Per bank write bursts
system.mem_ctrls0.perBankRdBursts::6            12487                       # Per bank write bursts
system.mem_ctrls0.perBankRdBursts::7            12619                       # Per bank write bursts
system.mem_ctrls0.perBankRdBursts::8            12395                       # Per bank write bursts
system.mem_ctrls0.perBankRdBursts::9            12783                       # Per bank write bursts
system.mem_ctrls0.perBankRdBursts::10           12392                       # Per bank write bursts
system.mem_ctrls0.perBankRdBursts::11           12667                       # Per bank write bursts
system.mem_ctrls0.perBankRdBursts::12           12231                       # Per bank write bursts
system.mem_ctrls0.perBankRdBursts::13           12027                       # Per bank write bursts
system.mem_ctrls0.perBankRdBursts::14           12228                       # Per bank write bursts
system.mem_ctrls0.perBankRdBursts::15           11901                       # Per bank write bursts
system.mem_ctrls0.perBankWrBursts::0             7803                       # Per bank write bursts
system.mem_ctrls0.perBankWrBursts::1             7660                       # Per bank write bursts
system.mem_ctrls0.perBankWrBursts::2             7801                       # Per bank write bursts
system.mem_ctrls0.perBankWrBursts::3             7880                       # Per bank write bursts
system.mem_ctrls0.perBankWrBursts::4             7803                       # Per bank write bursts
system.mem_ctrls0.perBankWrBursts::5             7877                       # Per bank write bursts
system.mem_ctrls0.perBankWrBursts::6             7995                       # Per bank write bursts
system.mem_ctrls0.perBankWrBursts::7             8059                       # Per bank write bursts
system.mem_ctrls0.perBankWrBursts::8             7920                       # Per bank write bursts
system.mem_ctrls0.perBankWrBursts::9             8099                       # Per bank write bursts
system.mem_ctrls0.perBankWrBursts::10            7908                       # Per bank write bursts
system.mem_ctrls0.perBankWrBursts::11            7916                       # Per bank write bursts
system.mem_ctrls0.perBankWrBursts::12            7794                       # Per bank write bursts
system.mem_ctrls0.perBankWrBursts::13            7829                       # Per bank write bursts
system.mem_ctrls0.perBankWrBursts::14            7908                       # Per bank write bursts
system.mem_ctrls0.perBankWrBursts::15            7628                       # Per bank write bursts
system.mem_ctrls0.numRdRetry                        0                       # Number of times read queue was full causing retry
system.mem_ctrls0.numWrRetry                      163                       # Number of times write queue was full causing retry
system.mem_ctrls0.totGap                  61567071500                       # Total gap between requests
system.mem_ctrls0.readPktSize::0                    0                       # Read request sizes (log2)
system.mem_ctrls0.readPktSize::1                    0                       # Read request sizes (log2)
system.mem_ctrls0.readPktSize::2                    0                       # Read request sizes (log2)
system.mem_ctrls0.readPktSize::3                    0                       # Read request sizes (log2)
system.mem_ctrls0.readPktSize::4                    0                       # Read request sizes (log2)
system.mem_ctrls0.readPktSize::5                    0                       # Read request sizes (log2)
system.mem_ctrls0.readPktSize::6               197046                       # Read request sizes (log2)
system.mem_ctrls0.writePktSize::0                   0                       # Write request sizes (log2)
system.mem_ctrls0.writePktSize::1                   0                       # Write request sizes (log2)
system.mem_ctrls0.writePktSize::2                   0                       # Write request sizes (log2)
system.mem_ctrls0.writePktSize::3                   0                       # Write request sizes (log2)
system.mem_ctrls0.writePktSize::4                   0                       # Write request sizes (log2)
system.mem_ctrls0.writePktSize::5                   0                       # Write request sizes (log2)
system.mem_ctrls0.writePktSize::6              125884                       # Write request sizes (log2)
system.mem_ctrls0.rdQLenPdf::0                 134389                       # What read queue length does an incoming req see
system.mem_ctrls0.rdQLenPdf::1                  27712                       # What read queue length does an incoming req see
system.mem_ctrls0.rdQLenPdf::2                  16745                       # What read queue length does an incoming req see
system.mem_ctrls0.rdQLenPdf::3                   8857                       # What read queue length does an incoming req see
system.mem_ctrls0.rdQLenPdf::4                   4187                       # What read queue length does an incoming req see
system.mem_ctrls0.rdQLenPdf::5                   2498                       # What read queue length does an incoming req see
system.mem_ctrls0.rdQLenPdf::6                   1432                       # What read queue length does an incoming req see
system.mem_ctrls0.rdQLenPdf::7                    815                       # What read queue length does an incoming req see
system.mem_ctrls0.rdQLenPdf::8                    270                       # What read queue length does an incoming req see
system.mem_ctrls0.rdQLenPdf::9                     81                       # What read queue length does an incoming req see
system.mem_ctrls0.rdQLenPdf::10                    34                       # What read queue length does an incoming req see
system.mem_ctrls0.rdQLenPdf::11                     4                       # What read queue length does an incoming req see
system.mem_ctrls0.rdQLenPdf::12                     0                       # What read queue length does an incoming req see
system.mem_ctrls0.rdQLenPdf::13                     0                       # What read queue length does an incoming req see
system.mem_ctrls0.rdQLenPdf::14                     0                       # What read queue length does an incoming req see
system.mem_ctrls0.rdQLenPdf::15                     0                       # What read queue length does an incoming req see
system.mem_ctrls0.rdQLenPdf::16                     0                       # What read queue length does an incoming req see
system.mem_ctrls0.rdQLenPdf::17                     0                       # What read queue length does an incoming req see
system.mem_ctrls0.rdQLenPdf::18                     0                       # What read queue length does an incoming req see
system.mem_ctrls0.rdQLenPdf::19                     0                       # What read queue length does an incoming req see
system.mem_ctrls0.rdQLenPdf::20                     0                       # What read queue length does an incoming req see
system.mem_ctrls0.rdQLenPdf::21                     0                       # What read queue length does an incoming req see
system.mem_ctrls0.rdQLenPdf::22                     0                       # What read queue length does an incoming req see
system.mem_ctrls0.rdQLenPdf::23                     0                       # What read queue length does an incoming req see
system.mem_ctrls0.rdQLenPdf::24                     0                       # What read queue length does an incoming req see
system.mem_ctrls0.rdQLenPdf::25                     0                       # What read queue length does an incoming req see
system.mem_ctrls0.rdQLenPdf::26                     0                       # What read queue length does an incoming req see
system.mem_ctrls0.rdQLenPdf::27                     0                       # What read queue length does an incoming req see
system.mem_ctrls0.rdQLenPdf::28                     0                       # What read queue length does an incoming req see
system.mem_ctrls0.rdQLenPdf::29                     0                       # What read queue length does an incoming req see
system.mem_ctrls0.rdQLenPdf::30                     0                       # What read queue length does an incoming req see
system.mem_ctrls0.rdQLenPdf::31                     0                       # What read queue length does an incoming req see
system.mem_ctrls0.wrQLenPdf::0                  23511                       # What write queue length does an incoming req see
system.mem_ctrls0.wrQLenPdf::1                  25095                       # What write queue length does an incoming req see
system.mem_ctrls0.wrQLenPdf::2                  25059                       # What write queue length does an incoming req see
system.mem_ctrls0.wrQLenPdf::3                  24875                       # What write queue length does an incoming req see
system.mem_ctrls0.wrQLenPdf::4                  24908                       # What write queue length does an incoming req see
system.mem_ctrls0.wrQLenPdf::5                   1284                       # What write queue length does an incoming req see
system.mem_ctrls0.wrQLenPdf::6                    683                       # What write queue length does an incoming req see
system.mem_ctrls0.wrQLenPdf::7                    469                       # What write queue length does an incoming req see
system.mem_ctrls0.bytesPerActivate::samples        70363                       # Bytes accessed per row activation
system.mem_ctrls0.bytesPerActivate::mean   293.697995                       # Bytes accessed per row activation
system.mem_ctrls0.bytesPerActivate::gmean   196.620734                       # Bytes accessed per row activation
system.mem_ctrls0.bytesPerActivate::stdev   277.736162                       # Bytes accessed per row activation
system.mem_ctrls0.bytesPerActivate::0-127        20963     29.79%     29.79% # Bytes accessed per row activation
system.mem_ctrls0.bytesPerActivate::128-255        14139     20.09%     49.89% # Bytes accessed per row activation
system.mem_ctrls0.bytesPerActivate::256-383        20779     29.53%     79.42% # Bytes accessed per row activation
system.mem_ctrls0.bytesPerActivate::384-511         3631      5.16%     84.58% # Bytes accessed per row activation
system.mem_ctrls0.bytesPerActivate::512-639         1996      2.84%     87.42% # Bytes accessed per row activation
system.mem_ctrls0.bytesPerActivate::640-767         1216      1.73%     89.14% # Bytes accessed per row activation
system.mem_ctrls0.bytesPerActivate::768-895          986      1.40%     90.54% # Bytes accessed per row activation
system.mem_ctrls0.bytesPerActivate::896-1023          985      1.40%     91.94% # Bytes accessed per row activation
system.mem_ctrls0.bytesPerActivate::1024-1151         5668      8.06%    100.00% # Bytes accessed per row activation
system.mem_ctrls0.bytesPerActivate::total        70363                       # Bytes accessed per row activation
system.mem_ctrls0.rdPerTurnAround::samples        23510                       # Reads before turning the bus around for writes
system.mem_ctrls0.rdPerTurnAround::mean      8.380179                       # Reads before turning the bus around for writes
system.mem_ctrls0.rdPerTurnAround::stdev    28.207974                       # Reads before turning the bus around for writes
system.mem_ctrls0.rdPerTurnAround::0-127        23494     99.93%     99.93% # Reads before turning the bus around for writes
system.mem_ctrls0.rdPerTurnAround::128-255           15      0.06%    100.00% # Reads before turning the bus around for writes
system.mem_ctrls0.rdPerTurnAround::3968-4095            1      0.00%    100.00% # Reads before turning the bus around for writes
system.mem_ctrls0.rdPerTurnAround::total        23510                       # Reads before turning the bus around for writes
system.mem_ctrls0.wrPerTurnAround::samples        23510                       # Writes before turning the bus around for reads
system.mem_ctrls0.wrPerTurnAround::mean      5.354317                       # Writes before turning the bus around for reads
system.mem_ctrls0.wrPerTurnAround::gmean     5.283157                       # Writes before turning the bus around for reads
system.mem_ctrls0.wrPerTurnAround::stdev     1.044473                       # Writes before turning the bus around for reads
system.mem_ctrls0.wrPerTurnAround::4-7          22283     94.78%     94.78% # Writes before turning the bus around for reads
system.mem_ctrls0.wrPerTurnAround::8-11          1119      4.76%     99.54% # Writes before turning the bus around for reads
system.mem_ctrls0.wrPerTurnAround::12-15          107      0.46%    100.00% # Writes before turning the bus around for reads
system.mem_ctrls0.wrPerTurnAround::16-19            1      0.00%    100.00% # Writes before turning the bus around for reads
system.mem_ctrls0.wrPerTurnAround::total        23510                       # Writes before turning the bus around for reads
system.mem_ctrls0.totQLat                  3545922066                       # Total ticks spent queuing
system.mem_ctrls0.totMemAccLat             7240122066                       # Total ticks spent from burst creation until serviced by the DRAM
system.mem_ctrls0.totBusLat                 985120000                       # Total ticks spent in databus transfers
system.mem_ctrls0.avgQLat                    17997.41                       # Average queueing delay per DRAM burst
system.mem_ctrls0.avgBusLat                   5000.00                       # Average bus latency per DRAM burst
system.mem_ctrls0.avgMemAccLat               36747.41                       # Average memory access latency per DRAM burst
system.mem_ctrls0.avgRdBW                      204.81                       # Average DRAM read bandwidth in MiByte/s
system.mem_ctrls0.avgWrBW                      130.85                       # Average achieved write bandwidth in MiByte/s
system.mem_ctrls0.avgRdBWSys                   204.83                       # Average system read bandwidth in MiByte/s
system.mem_ctrls0.avgWrBWSys                   130.86                       # Average system write bandwidth in MiByte/s
system.mem_ctrls0.peakBW                     12800.00                       # Theoretical peak bandwidth in MiByte/s
system.mem_ctrls0.busUtil                        2.62                       # Data bus utilization in percentage
system.mem_ctrls0.busUtilRead                    1.60                       # Data bus utilization in percentage for reads
system.mem_ctrls0.busUtilWrite                   1.02                       # Data bus utilization in percentage for writes
system.mem_ctrls0.avgRdQLen                      1.10                       # Average read queue length when enqueuing
system.mem_ctrls0.avgWrQLen                      2.90                       # Average write queue length when enqueuing
system.mem_ctrls0.readRowHits                  160124                       # Number of row buffer hits during reads
system.mem_ctrls0.writeRowHits                  92414                       # Number of row buffer hits during writes
system.mem_ctrls0.readRowHitRate                81.27                       # Row buffer hit rate for reads
system.mem_ctrls0.writeRowHitRate               73.41                       # Row buffer hit rate for writes
system.mem_ctrls0.avgGap                    190651.45                       # Average gap between requests
system.mem_ctrls0.pageHitRate                   78.21                       # Row buffer hit rate, read and write combined
system.mem_ctrls0.memoryStateTime::IDLE   11704586000                       # Time in different power states
system.mem_ctrls0.memoryStateTime::REF     2055820000                       # Time in different power states
system.mem_ctrls0.memoryStateTime::PRE_PDN            0                       # Time in different power states
system.mem_ctrls0.memoryStateTime::ACT    47805750250                       # Time in different power states
system.mem_ctrls0.memoryStateTime::ACT_PDN            0                       # Time in different power states
system.mem_ctrls0.actEnergy::0              268856280                       # Energy for activate commands per rank (pJ)
system.mem_ctrls0.actEnergy::1              263088000                       # Energy for activate commands per rank (pJ)
system.mem_ctrls0.preEnergy::0              146697375                       # Energy for precharge commands per rank (pJ)
system.mem_ctrls0.preEnergy::1              143550000                       # Energy for precharge commands per rank (pJ)
system.mem_ctrls0.readEnergy::0             767520000                       # Energy for read commands per rank (pJ)
system.mem_ctrls0.readEnergy::1             769220400                       # Energy for read commands per rank (pJ)
system.mem_ctrls0.writeEnergy::0            407449440                       # Energy for write commands per rank (pJ)
system.mem_ctrls0.writeEnergy::1            408252960                       # Energy for write commands per rank (pJ)
system.mem_ctrls0.refreshEnergy::0         4021183920                       # Energy for refresh commands per rank (pJ)
system.mem_ctrls0.refreshEnergy::1         4021183920                       # Energy for refresh commands per rank (pJ)
system.mem_ctrls0.actBackEnergy::0        25335509625                       # Energy for active background per rank (pJ)
system.mem_ctrls0.actBackEnergy::1        24805795230                       # Energy for active background per rank (pJ)
system.mem_ctrls0.preBackEnergy::0        14715554250                       # Energy for precharge background per rank (pJ)
system.mem_ctrls0.preBackEnergy::1        15180216000                       # Energy for precharge background per rank (pJ)
system.mem_ctrls0.totalEnergy::0          45662770890                       # Total energy per rank (pJ)
system.mem_ctrls0.totalEnergy::1          45591306510                       # Total energy per rank (pJ)
system.mem_ctrls0.averagePower::0          741.686405                       # Core power per rank (mW)
system.mem_ctrls0.averagePower::1          740.525631                       # Core power per rank (mW)
system.mem_ctrls1.bytes_read::ruby.dir_cntrl1     12390528                       # Number of bytes read from this memory
system.mem_ctrls1.bytes_read::total          12390528                       # Number of bytes read from this memory
system.mem_ctrls1.bytes_written::ruby.dir_cntrl1      7841216                       # Number of bytes written to this memory
system.mem_ctrls1.bytes_written::total        7841216                       # Number of bytes written to this memory
system.mem_ctrls1.num_reads::ruby.dir_cntrl1       193602                       # Number of read requests responded to by this memory
system.mem_ctrls1.num_reads::total             193602                       # Number of read requests responded to by this memory
system.mem_ctrls1.num_writes::ruby.dir_cntrl1       122519                       # Number of write requests responded to by this memory
system.mem_ctrls1.num_writes::total            122519                       # Number of write requests responded to by this memory
system.mem_ctrls1.bw_read::ruby.dir_cntrl1    201250910                       # Total read bandwidth from this memory (bytes/s)
system.mem_ctrls1.bw_read::total            201250910                       # Total read bandwidth from this memory (bytes/s)
system.mem_ctrls1.bw_write::ruby.dir_cntrl1    127359533                       # Write bandwidth from this memory (bytes/s)
system.mem_ctrls1.bw_write::total           127359533                       # Write bandwidth from this memory (bytes/s)
system.mem_ctrls1.bw_total::ruby.dir_cntrl1    328610443                       # Total bandwidth to/from this memory (bytes/s)
system.mem_ctrls1.bw_total::total           328610443                       # Total bandwidth to/from this memory (bytes/s)
system.mem_ctrls1.readReqs                     193602                       # Number of read requests accepted
system.mem_ctrls1.writeReqs                    122519                       # Number of write requests accepted
system.mem_ctrls1.readBursts                   193602                       # Number of DRAM read bursts, including those serviced by the write queue
system.mem_ctrls1.writeBursts                  122519                       # Number of DRAM write bursts, including those merged in the write queue
system.mem_ctrls1.bytesReadDRAM              12388928                       # Total number of bytes read from DRAM
system.mem_ctrls1.bytesReadWrQ                   1600                       # Total number of bytes read from write queue
system.mem_ctrls1.bytesWritten                7840960                       # Total number of bytes written to DRAM
system.mem_ctrls1.bytesReadSys               12390528                       # Total read bytes from the system interface side
system.mem_ctrls1.bytesWrittenSys             7841216                       # Total written bytes from the system interface side
system.mem_ctrls1.servicedByWrQ                    25                       # Number of DRAM read bursts serviced by the write queue
system.mem_ctrls1.mergedWrBursts                    0                       # Number of DRAM write bursts merged with an existing one
system.mem_ctrls1.neitherReadNorWriteReqs            0                       # Number of requests that are neither read nor write
system.mem_ctrls1.perBankRdBursts::0            11840                       # Per bank write bursts
system.mem_ctrls1.perBankRdBursts::1            11946                       # Per bank write bursts
system.mem_ctrls1.perBankRdBursts::2            11885                       # Per bank write bursts
system.mem_ctrls1.perBankRdBursts::3            12224                       # Per bank write bursts
system.mem_ctrls1.perBankRdBursts::4            12049                       # Per bank write bursts
system.mem_ctrls1.perBankRdBursts::5            12103                       # Per bank write bursts
system.mem_ctrls1.perBankRdBursts::6            12307                       # Per bank write bursts
system.mem_ctrls1.perBankRdBursts::7            12416                       # Per bank write bursts
system.mem_ctrls1.perBankRdBursts::8            12179                       # Per bank write bursts
system.mem_ctrls1.perBankRdBursts::9            12555                       # Per bank write bursts
system.mem_ctrls1.perBankRdBursts::10           12164                       # Per bank write bursts
system.mem_ctrls1.perBankRdBursts::11           12477                       # Per bank write bursts
system.mem_ctrls1.perBankRdBursts::12           12006                       # Per bank write bursts
system.mem_ctrls1.perBankRdBursts::13           11800                       # Per bank write bursts
system.mem_ctrls1.perBankRdBursts::14           11911                       # Per bank write bursts
system.mem_ctrls1.perBankRdBursts::15           11715                       # Per bank write bursts
system.mem_ctrls1.perBankWrBursts::0             7601                       # Per bank write bursts
system.mem_ctrls1.perBankWrBursts::1             7470                       # Per bank write bursts
system.mem_ctrls1.perBankWrBursts::2             7607                       # Per bank write bursts
system.mem_ctrls1.perBankWrBursts::3             7670                       # Per bank write bursts
system.mem_ctrls1.perBankWrBursts::4             7608                       # Per bank write bursts
system.mem_ctrls1.perBankWrBursts::5             7682                       # Per bank write bursts
system.mem_ctrls1.perBankWrBursts::6             7772                       # Per bank write bursts
system.mem_ctrls1.perBankWrBursts::7             7842                       # Per bank write bursts
system.mem_ctrls1.perBankWrBursts::8             7709                       # Per bank write bursts
system.mem_ctrls1.perBankWrBursts::9             7884                       # Per bank write bursts
system.mem_ctrls1.perBankWrBursts::10            7691                       # Per bank write bursts
system.mem_ctrls1.perBankWrBursts::11            7707                       # Per bank write bursts
system.mem_ctrls1.perBankWrBursts::12            7587                       # Per bank write bursts
system.mem_ctrls1.perBankWrBursts::13            7615                       # Per bank write bursts
system.mem_ctrls1.perBankWrBursts::14            7640                       # Per bank write bursts
system.mem_ctrls1.perBankWrBursts::15            7430                       # Per bank write bursts
system.mem_ctrls1.numRdRetry                        0                       # Number of times read queue was full causing retry
system.mem_ctrls1.numWrRetry                      187                       # Number of times write queue was full causing retry
system.mem_ctrls1.totGap                  61566796000                       # Total gap between requests
system.mem_ctrls1.readPktSize::0                    0                       # Read request sizes (log2)
system.mem_ctrls1.readPktSize::1                    0                       # Read request sizes (log2)
system.mem_ctrls1.readPktSize::2                    0                       # Read request sizes (log2)
system.mem_ctrls1.readPktSize::3                    0                       # Read request sizes (log2)
system.mem_ctrls1.readPktSize::4                    0                       # Read request sizes (log2)
system.mem_ctrls1.readPktSize::5                    0                       # Read request sizes (log2)
system.mem_ctrls1.readPktSize::6               193602                       # Read request sizes (log2)
system.mem_ctrls1.writePktSize::0                   0                       # Write request sizes (log2)
system.mem_ctrls1.writePktSize::1                   0                       # Write request sizes (log2)
system.mem_ctrls1.writePktSize::2                   0                       # Write request sizes (log2)
system.mem_ctrls1.writePktSize::3                   0                       # Write request sizes (log2)
system.mem_ctrls1.writePktSize::4                   0                       # Write request sizes (log2)
system.mem_ctrls1.writePktSize::5                   0                       # Write request sizes (log2)
system.mem_ctrls1.writePktSize::6              122519                       # Write request sizes (log2)
system.mem_ctrls1.rdQLenPdf::0                 133005                       # What read queue length does an incoming req see
system.mem_ctrls1.rdQLenPdf::1                  27598                       # What read queue length does an incoming req see
system.mem_ctrls1.rdQLenPdf::2                  15333                       # What read queue length does an incoming req see
system.mem_ctrls1.rdQLenPdf::3                   8371                       # What read queue length does an incoming req see
system.mem_ctrls1.rdQLenPdf::4                   4166                       # What read queue length does an incoming req see
system.mem_ctrls1.rdQLenPdf::5                   2491                       # What read queue length does an incoming req see
system.mem_ctrls1.rdQLenPdf::6                   1475                       # What read queue length does an incoming req see
system.mem_ctrls1.rdQLenPdf::7                    849                       # What read queue length does an incoming req see
system.mem_ctrls1.rdQLenPdf::8                    221                       # What read queue length does an incoming req see
system.mem_ctrls1.rdQLenPdf::9                     48                       # What read queue length does an incoming req see
system.mem_ctrls1.rdQLenPdf::10                    17                       # What read queue length does an incoming req see
system.mem_ctrls1.rdQLenPdf::11                     3                       # What read queue length does an incoming req see
system.mem_ctrls1.rdQLenPdf::12                     0                       # What read queue length does an incoming req see
system.mem_ctrls1.rdQLenPdf::13                     0                       # What read queue length does an incoming req see
system.mem_ctrls1.rdQLenPdf::14                     0                       # What read queue length does an incoming req see
system.mem_ctrls1.rdQLenPdf::15                     0                       # What read queue length does an incoming req see
system.mem_ctrls1.rdQLenPdf::16                     0                       # What read queue length does an incoming req see
system.mem_ctrls1.rdQLenPdf::17                     0                       # What read queue length does an incoming req see
system.mem_ctrls1.rdQLenPdf::18                     0                       # What read queue length does an incoming req see
system.mem_ctrls1.rdQLenPdf::19                     0                       # What read queue length does an incoming req see
system.mem_ctrls1.rdQLenPdf::20                     0                       # What read queue length does an incoming req see
system.mem_ctrls1.rdQLenPdf::21                     0                       # What read queue length does an incoming req see
system.mem_ctrls1.rdQLenPdf::22                     0                       # What read queue length does an incoming req see
system.mem_ctrls1.rdQLenPdf::23                     0                       # What read queue length does an incoming req see
system.mem_ctrls1.rdQLenPdf::24                     0                       # What read queue length does an incoming req see
system.mem_ctrls1.rdQLenPdf::25                     0                       # What read queue length does an incoming req see
system.mem_ctrls1.rdQLenPdf::26                     0                       # What read queue length does an incoming req see
system.mem_ctrls1.rdQLenPdf::27                     0                       # What read queue length does an incoming req see
system.mem_ctrls1.rdQLenPdf::28                     0                       # What read queue length does an incoming req see
system.mem_ctrls1.rdQLenPdf::29                     0                       # What read queue length does an incoming req see
system.mem_ctrls1.rdQLenPdf::30                     0                       # What read queue length does an incoming req see
system.mem_ctrls1.rdQLenPdf::31                     0                       # What read queue length does an incoming req see
system.mem_ctrls1.wrQLenPdf::0                  22994                       # What write queue length does an incoming req see
system.mem_ctrls1.wrQLenPdf::1                  24373                       # What write queue length does an incoming req see
system.mem_ctrls1.wrQLenPdf::2                  24385                       # What write queue length does an incoming req see
system.mem_ctrls1.wrQLenPdf::3                  24251                       # What write queue length does an incoming req see
system.mem_ctrls1.wrQLenPdf::4                  24256                       # What write queue length does an incoming req see
system.mem_ctrls1.wrQLenPdf::5                   1158                       # What write queue length does an incoming req see
system.mem_ctrls1.wrQLenPdf::6                    629                       # What write queue length does an incoming req see
system.mem_ctrls1.wrQLenPdf::7                    473                       # What write queue length does an incoming req see
system.mem_ctrls1.bytesPerActivate::samples        63544                       # Bytes accessed per row activation
system.mem_ctrls1.bytesPerActivate::mean   318.353267                       # Bytes accessed per row activation
system.mem_ctrls1.bytesPerActivate::gmean   219.882014                       # Bytes accessed per row activation
system.mem_ctrls1.bytesPerActivate::stdev   282.791511                       # Bytes accessed per row activation
system.mem_ctrls1.bytesPerActivate::0-127        15121     23.80%     23.80% # Bytes accessed per row activation
system.mem_ctrls1.bytesPerActivate::128-255        12970     20.41%     44.21% # Bytes accessed per row activation
system.mem_ctrls1.bytesPerActivate::256-383        20925     32.93%     77.14% # Bytes accessed per row activation
system.mem_ctrls1.bytesPerActivate::384-511         3538      5.57%     82.70% # Bytes accessed per row activation
system.mem_ctrls1.bytesPerActivate::512-639         2083      3.28%     85.98% # Bytes accessed per row activation
system.mem_ctrls1.bytesPerActivate::640-767         1230      1.94%     87.92% # Bytes accessed per row activation
system.mem_ctrls1.bytesPerActivate::768-895         1001      1.58%     89.49% # Bytes accessed per row activation
system.mem_ctrls1.bytesPerActivate::896-1023          920      1.45%     90.94% # Bytes accessed per row activation
system.mem_ctrls1.bytesPerActivate::1024-1151         5756      9.06%    100.00% # Bytes accessed per row activation
system.mem_ctrls1.bytesPerActivate::total        63544                       # Bytes accessed per row activation
system.mem_ctrls1.rdPerTurnAround::samples        22993                       # Reads before turning the bus around for writes
system.mem_ctrls1.rdPerTurnAround::mean      8.418649                       # Reads before turning the bus around for writes
system.mem_ctrls1.rdPerTurnAround::stdev    23.331046                       # Reads before turning the bus around for writes
system.mem_ctrls1.rdPerTurnAround::0-127        22980     99.94%     99.94% # Reads before turning the bus around for writes
system.mem_ctrls1.rdPerTurnAround::128-255           11      0.05%     99.99% # Reads before turning the bus around for writes
system.mem_ctrls1.rdPerTurnAround::1152-1279            1      0.00%    100.00% # Reads before turning the bus around for writes
system.mem_ctrls1.rdPerTurnAround::2816-2943            1      0.00%    100.00% # Reads before turning the bus around for writes
system.mem_ctrls1.rdPerTurnAround::total        22993                       # Reads before turning the bus around for writes
system.mem_ctrls1.wrPerTurnAround::samples        22993                       # Writes before turning the bus around for reads
system.mem_ctrls1.wrPerTurnAround::mean      5.328361                       # Writes before turning the bus around for reads
system.mem_ctrls1.wrPerTurnAround::gmean     5.261243                       # Writes before turning the bus around for reads
system.mem_ctrls1.wrPerTurnAround::stdev     1.011350                       # Writes before turning the bus around for reads
system.mem_ctrls1.wrPerTurnAround::4-5          19732     85.82%     85.82% # Writes before turning the bus around for reads
system.mem_ctrls1.wrPerTurnAround::6-7           2073      9.02%     94.83% # Writes before turning the bus around for reads
system.mem_ctrls1.wrPerTurnAround::8-9            834      3.63%     98.46% # Writes before turning the bus around for reads
system.mem_ctrls1.wrPerTurnAround::10-11          271      1.18%     99.64% # Writes before turning the bus around for reads
system.mem_ctrls1.wrPerTurnAround::12-13           74      0.32%     99.96% # Writes before turning the bus around for reads
system.mem_ctrls1.wrPerTurnAround::14-15            9      0.04%    100.00% # Writes before turning the bus around for reads
system.mem_ctrls1.wrPerTurnAround::total        22993                       # Writes before turning the bus around for reads
system.mem_ctrls1.totQLat                  3347672546                       # Total ticks spent queuing
system.mem_ctrls1.totMemAccLat             6977241296                       # Total ticks spent from burst creation until serviced by the DRAM
system.mem_ctrls1.totBusLat                 967885000                       # Total ticks spent in databus transfers
system.mem_ctrls1.avgQLat                    17293.75                       # Average queueing delay per DRAM burst
system.mem_ctrls1.avgBusLat                   5000.00                       # Average bus latency per DRAM burst
system.mem_ctrls1.avgMemAccLat               36043.75                       # Average memory access latency per DRAM burst
system.mem_ctrls1.avgRdBW                      201.22                       # Average DRAM read bandwidth in MiByte/s
system.mem_ctrls1.avgWrBW                      127.36                       # Average achieved write bandwidth in MiByte/s
system.mem_ctrls1.avgRdBWSys                   201.25                       # Average system read bandwidth in MiByte/s
system.mem_ctrls1.avgWrBWSys                   127.36                       # Average system write bandwidth in MiByte/s
system.mem_ctrls1.peakBW                     12800.00                       # Theoretical peak bandwidth in MiByte/s
system.mem_ctrls1.busUtil                        2.57                       # Data bus utilization in percentage
system.mem_ctrls1.busUtilRead                    1.57                       # Data bus utilization in percentage for reads
system.mem_ctrls1.busUtilWrite                   0.99                       # Data bus utilization in percentage for writes
system.mem_ctrls1.avgRdQLen                      1.10                       # Average read queue length when enqueuing
system.mem_ctrls1.avgWrQLen                      2.95                       # Average write queue length when enqueuing
system.mem_ctrls1.readRowHits                  159380                       # Number of row buffer hits during reads
system.mem_ctrls1.writeRowHits                  93164                       # Number of row buffer hits during writes
system.mem_ctrls1.readRowHitRate                82.33                       # Row buffer hit rate for reads
system.mem_ctrls1.writeRowHitRate               76.04                       # Row buffer hit rate for writes
system.mem_ctrls1.avgGap                    194757.06                       # Average gap between requests
system.mem_ctrls1.pageHitRate                   79.89                       # Row buffer hit rate, read and write combined
system.mem_ctrls1.memoryStateTime::IDLE   11975556500                       # Time in different power states
system.mem_ctrls1.memoryStateTime::REF     2055820000                       # Time in different power states
system.mem_ctrls1.memoryStateTime::PRE_PDN            0                       # Time in different power states
system.mem_ctrls1.memoryStateTime::ACT    47534878500                       # Time in different power states
system.mem_ctrls1.memoryStateTime::ACT_PDN            0                       # Time in different power states
system.mem_ctrls1.actEnergy::0              243552960                       # Energy for activate commands per rank (pJ)
system.mem_ctrls1.actEnergy::1              236839680                       # Energy for activate commands per rank (pJ)
system.mem_ctrls1.preEnergy::0              132891000                       # Energy for precharge commands per rank (pJ)
system.mem_ctrls1.preEnergy::1              129228000                       # Energy for precharge commands per rank (pJ)
system.mem_ctrls1.readEnergy::0             754790400                       # Energy for read commands per rank (pJ)
system.mem_ctrls1.readEnergy::1             755055600                       # Energy for read commands per rank (pJ)
system.mem_ctrls1.writeEnergy::0            396912960                       # Energy for write commands per rank (pJ)
system.mem_ctrls1.writeEnergy::1            396984240                       # Energy for write commands per rank (pJ)
system.mem_ctrls1.refreshEnergy::0         4021183920                       # Energy for refresh commands per rank (pJ)
system.mem_ctrls1.refreshEnergy::1         4021183920                       # Energy for refresh commands per rank (pJ)
system.mem_ctrls1.actBackEnergy::0        25109425395                       # Energy for active background per rank (pJ)
system.mem_ctrls1.actBackEnergy::1        24560570115                       # Energy for active background per rank (pJ)
system.mem_ctrls1.preBackEnergy::0        14913888000                       # Energy for precharge background per rank (pJ)
system.mem_ctrls1.preBackEnergy::1        15395340000                       # Energy for precharge background per rank (pJ)
system.mem_ctrls1.totalEnergy::0          45572644635                       # Total energy per rank (pJ)
system.mem_ctrls1.totalEnergy::1          45495201555                       # Total energy per rank (pJ)
system.mem_ctrls1.averagePower::0          740.222226                       # Core power per rank (mW)
system.mem_ctrls1.averagePower::1          738.964342                       # Core power per rank (mW)
system.mem_ctrls2.bytes_read::ruby.dir_cntrl2     12391744                       # Number of bytes read from this memory
system.mem_ctrls2.bytes_read::total          12391744                       # Number of bytes read from this memory
system.mem_ctrls2.bytes_written::ruby.dir_cntrl2      7841408                       # Number of bytes written to this memory
system.mem_ctrls2.bytes_written::total        7841408                       # Number of bytes written to this memory
system.mem_ctrls2.num_reads::ruby.dir_cntrl2       193621                       # Number of read requests responded to by this memory
system.mem_ctrls2.num_reads::total             193621                       # Number of read requests responded to by this memory
system.mem_ctrls2.num_writes::ruby.dir_cntrl2       122522                       # Number of write requests responded to by this memory
system.mem_ctrls2.num_writes::total            122522                       # Number of write requests responded to by this memory
system.mem_ctrls2.bw_read::ruby.dir_cntrl2    201270661                       # Total read bandwidth from this memory (bytes/s)
system.mem_ctrls2.bw_read::total            201270661                       # Total read bandwidth from this memory (bytes/s)
system.mem_ctrls2.bw_write::ruby.dir_cntrl2    127362651                       # Write bandwidth from this memory (bytes/s)
system.mem_ctrls2.bw_write::total           127362651                       # Write bandwidth from this memory (bytes/s)
system.mem_ctrls2.bw_total::ruby.dir_cntrl2    328633312                       # Total bandwidth to/from this memory (bytes/s)
system.mem_ctrls2.bw_total::total           328633312                       # Total bandwidth to/from this memory (bytes/s)
system.mem_ctrls2.readReqs                     193621                       # Number of read requests accepted
system.mem_ctrls2.writeReqs                    122522                       # Number of write requests accepted
system.mem_ctrls2.readBursts                   193621                       # Number of DRAM read bursts, including those serviced by the write queue
system.mem_ctrls2.writeBursts                  122522                       # Number of DRAM write bursts, including those merged in the write queue
system.mem_ctrls2.bytesReadDRAM              12390720                       # Total number of bytes read from DRAM
system.mem_ctrls2.bytesReadWrQ                   1024                       # Total number of bytes read from write queue
system.mem_ctrls2.bytesWritten                7841152                       # Total number of bytes written to DRAM
system.mem_ctrls2.bytesReadSys               12391744                       # Total read bytes from the system interface side
system.mem_ctrls2.bytesWrittenSys             7841408                       # Total written bytes from the system interface side
system.mem_ctrls2.servicedByWrQ                    16                       # Number of DRAM read bursts serviced by the write queue
system.mem_ctrls2.mergedWrBursts                    0                       # Number of DRAM write bursts merged with an existing one
system.mem_ctrls2.neitherReadNorWriteReqs            0                       # Number of requests that are neither read nor write
system.mem_ctrls2.perBankRdBursts::0            11838                       # Per bank write bursts
system.mem_ctrls2.perBankRdBursts::1            11982                       # Per bank write bursts
system.mem_ctrls2.perBankRdBursts::2            11905                       # Per bank write bursts
system.mem_ctrls2.perBankRdBursts::3            12265                       # Per bank write bursts
system.mem_ctrls2.perBankRdBursts::4            12055                       # Per bank write bursts
system.mem_ctrls2.perBankRdBursts::5            12087                       # Per bank write bursts
system.mem_ctrls2.perBankRdBursts::6            12281                       # Per bank write bursts
system.mem_ctrls2.perBankRdBursts::7            12415                       # Per bank write bursts
system.mem_ctrls2.perBankRdBursts::8            12170                       # Per bank write bursts
system.mem_ctrls2.perBankRdBursts::9            12541                       # Per bank write bursts
system.mem_ctrls2.perBankRdBursts::10           12171                       # Per bank write bursts
system.mem_ctrls2.perBankRdBursts::11           12516                       # Per bank write bursts
system.mem_ctrls2.perBankRdBursts::12           12003                       # Per bank write bursts
system.mem_ctrls2.perBankRdBursts::13           11765                       # Per bank write bursts
system.mem_ctrls2.perBankRdBursts::14           11895                       # Per bank write bursts
system.mem_ctrls2.perBankRdBursts::15           11716                       # Per bank write bursts
system.mem_ctrls2.perBankWrBursts::0             7594                       # Per bank write bursts
system.mem_ctrls2.perBankWrBursts::1             7469                       # Per bank write bursts
system.mem_ctrls2.perBankWrBursts::2             7607                       # Per bank write bursts
system.mem_ctrls2.perBankWrBursts::3             7679                       # Per bank write bursts
system.mem_ctrls2.perBankWrBursts::4             7606                       # Per bank write bursts
system.mem_ctrls2.perBankWrBursts::5             7667                       # Per bank write bursts
system.mem_ctrls2.perBankWrBursts::6             7765                       # Per bank write bursts
system.mem_ctrls2.perBankWrBursts::7             7850                       # Per bank write bursts
system.mem_ctrls2.perBankWrBursts::8             7711                       # Per bank write bursts
system.mem_ctrls2.perBankWrBursts::9             7886                       # Per bank write bursts
system.mem_ctrls2.perBankWrBursts::10            7690                       # Per bank write bursts
system.mem_ctrls2.perBankWrBursts::11            7718                       # Per bank write bursts
system.mem_ctrls2.perBankWrBursts::12            7593                       # Per bank write bursts
system.mem_ctrls2.perBankWrBursts::13            7605                       # Per bank write bursts
system.mem_ctrls2.perBankWrBursts::14            7647                       # Per bank write bursts
system.mem_ctrls2.perBankWrBursts::15            7431                       # Per bank write bursts
system.mem_ctrls2.numRdRetry                        0                       # Number of times read queue was full causing retry
system.mem_ctrls2.numWrRetry                      186                       # Number of times write queue was full causing retry
system.mem_ctrls2.totGap                  61567424500                       # Total gap between requests
system.mem_ctrls2.readPktSize::0                    0                       # Read request sizes (log2)
system.mem_ctrls2.readPktSize::1                    0                       # Read request sizes (log2)
system.mem_ctrls2.readPktSize::2                    0                       # Read request sizes (log2)
system.mem_ctrls2.readPktSize::3                    0                       # Read request sizes (log2)
system.mem_ctrls2.readPktSize::4                    0                       # Read request sizes (log2)
system.mem_ctrls2.readPktSize::5                    0                       # Read request sizes (log2)
system.mem_ctrls2.readPktSize::6               193621                       # Read request sizes (log2)
system.mem_ctrls2.writePktSize::0                   0                       # Write request sizes (log2)
system.mem_ctrls2.writePktSize::1                   0                       # Write request sizes (log2)
system.mem_ctrls2.writePktSize::2                   0                       # Write request sizes (log2)
system.mem_ctrls2.writePktSize::3                   0                       # Write request sizes (log2)
system.mem_ctrls2.writePktSize::4                   0                       # Write request sizes (log2)
system.mem_ctrls2.writePktSize::5                   0                       # Write request sizes (log2)
system.mem_ctrls2.writePktSize::6              122522                       # Write request sizes (log2)
system.mem_ctrls2.rdQLenPdf::0                 133213                       # What read queue length does an incoming req see
system.mem_ctrls2.rdQLenPdf::1                  28701                       # What read queue length does an incoming req see
system.mem_ctrls2.rdQLenPdf::2                  14346                       # What read queue length does an incoming req see
system.mem_ctrls2.rdQLenPdf::3                   7929                       # What read queue length does an incoming req see
system.mem_ctrls2.rdQLenPdf::4                   4253                       # What read queue length does an incoming req see
system.mem_ctrls2.rdQLenPdf::5                   2474                       # What read queue length does an incoming req see
system.mem_ctrls2.rdQLenPdf::6                   1517                       # What read queue length does an incoming req see
system.mem_ctrls2.rdQLenPdf::7                    837                       # What read queue length does an incoming req see
system.mem_ctrls2.rdQLenPdf::8                    228                       # What read queue length does an incoming req see
system.mem_ctrls2.rdQLenPdf::9                     66                       # What read queue length does an incoming req see
system.mem_ctrls2.rdQLenPdf::10                    29                       # What read queue length does an incoming req see
system.mem_ctrls2.rdQLenPdf::11                     9                       # What read queue length does an incoming req see
system.mem_ctrls2.rdQLenPdf::12                     1                       # What read queue length does an incoming req see
system.mem_ctrls2.rdQLenPdf::13                     1                       # What read queue length does an incoming req see
system.mem_ctrls2.rdQLenPdf::14                     1                       # What read queue length does an incoming req see
system.mem_ctrls2.rdQLenPdf::15                     0                       # What read queue length does an incoming req see
system.mem_ctrls2.rdQLenPdf::16                     0                       # What read queue length does an incoming req see
system.mem_ctrls2.rdQLenPdf::17                     0                       # What read queue length does an incoming req see
system.mem_ctrls2.rdQLenPdf::18                     0                       # What read queue length does an incoming req see
system.mem_ctrls2.rdQLenPdf::19                     0                       # What read queue length does an incoming req see
system.mem_ctrls2.rdQLenPdf::20                     0                       # What read queue length does an incoming req see
system.mem_ctrls2.rdQLenPdf::21                     0                       # What read queue length does an incoming req see
system.mem_ctrls2.rdQLenPdf::22                     0                       # What read queue length does an incoming req see
system.mem_ctrls2.rdQLenPdf::23                     0                       # What read queue length does an incoming req see
system.mem_ctrls2.rdQLenPdf::24                     0                       # What read queue length does an incoming req see
system.mem_ctrls2.rdQLenPdf::25                     0                       # What read queue length does an incoming req see
system.mem_ctrls2.rdQLenPdf::26                     0                       # What read queue length does an incoming req see
system.mem_ctrls2.rdQLenPdf::27                     0                       # What read queue length does an incoming req see
system.mem_ctrls2.rdQLenPdf::28                     0                       # What read queue length does an incoming req see
system.mem_ctrls2.rdQLenPdf::29                     0                       # What read queue length does an incoming req see
system.mem_ctrls2.rdQLenPdf::30                     0                       # What read queue length does an incoming req see
system.mem_ctrls2.rdQLenPdf::31                     0                       # What read queue length does an incoming req see
system.mem_ctrls2.wrQLenPdf::0                  23036                       # What write queue length does an incoming req see
system.mem_ctrls2.wrQLenPdf::1                  24455                       # What write queue length does an incoming req see
system.mem_ctrls2.wrQLenPdf::2                  24342                       # What write queue length does an incoming req see
system.mem_ctrls2.wrQLenPdf::3                  24208                       # What write queue length does an incoming req see
system.mem_ctrls2.wrQLenPdf::4                  24245                       # What write queue length does an incoming req see
system.mem_ctrls2.wrQLenPdf::5                   1104                       # What write queue length does an incoming req see
system.mem_ctrls2.wrQLenPdf::6                    634                       # What write queue length does an incoming req see
system.mem_ctrls2.wrQLenPdf::7                    498                       # What write queue length does an incoming req see
system.mem_ctrls2.bytesPerActivate::samples        63342                       # Bytes accessed per row activation
system.mem_ctrls2.bytesPerActivate::mean   319.398819                       # Bytes accessed per row activation
system.mem_ctrls2.bytesPerActivate::gmean   221.111353                       # Bytes accessed per row activation
system.mem_ctrls2.bytesPerActivate::stdev   282.716082                       # Bytes accessed per row activation
system.mem_ctrls2.bytesPerActivate::0-127        14899     23.52%     23.52% # Bytes accessed per row activation
system.mem_ctrls2.bytesPerActivate::128-255        12733     20.10%     43.62% # Bytes accessed per row activation
system.mem_ctrls2.bytesPerActivate::256-383        21231     33.52%     77.14% # Bytes accessed per row activation
system.mem_ctrls2.bytesPerActivate::384-511         3656      5.77%     82.91% # Bytes accessed per row activation
system.mem_ctrls2.bytesPerActivate::512-639         1920      3.03%     85.94% # Bytes accessed per row activation
system.mem_ctrls2.bytesPerActivate::640-767         1203      1.90%     87.84% # Bytes accessed per row activation
system.mem_ctrls2.bytesPerActivate::768-895         1000      1.58%     89.42% # Bytes accessed per row activation
system.mem_ctrls2.bytesPerActivate::896-1023          918      1.45%     90.87% # Bytes accessed per row activation
system.mem_ctrls2.bytesPerActivate::1024-1151         5782      9.13%    100.00% # Bytes accessed per row activation
system.mem_ctrls2.bytesPerActivate::total        63342                       # Bytes accessed per row activation
system.mem_ctrls2.rdPerTurnAround::samples        23035                       # Reads before turning the bus around for writes
system.mem_ctrls2.rdPerTurnAround::mean      8.404558                       # Reads before turning the bus around for writes
system.mem_ctrls2.rdPerTurnAround::stdev    23.395142                       # Reads before turning the bus around for writes
system.mem_ctrls2.rdPerTurnAround::0-127        23022     99.94%     99.94% # Reads before turning the bus around for writes
system.mem_ctrls2.rdPerTurnAround::128-255           11      0.05%     99.99% # Reads before turning the bus around for writes
system.mem_ctrls2.rdPerTurnAround::1152-1279            1      0.00%    100.00% # Reads before turning the bus around for writes
system.mem_ctrls2.rdPerTurnAround::2816-2943            1      0.00%    100.00% # Reads before turning the bus around for writes
system.mem_ctrls2.rdPerTurnAround::total        23035                       # Reads before turning the bus around for writes
system.mem_ctrls2.wrPerTurnAround::samples        23035                       # Writes before turning the bus around for reads
system.mem_ctrls2.wrPerTurnAround::mean      5.318776                       # Writes before turning the bus around for reads
system.mem_ctrls2.wrPerTurnAround::gmean     5.253530                       # Writes before turning the bus around for reads
system.mem_ctrls2.wrPerTurnAround::stdev     1.001610                       # Writes before turning the bus around for reads
system.mem_ctrls2.wrPerTurnAround::4-7          21946     95.27%     95.27% # Writes before turning the bus around for reads
system.mem_ctrls2.wrPerTurnAround::8-11           993      4.31%     99.58% # Writes before turning the bus around for reads
system.mem_ctrls2.wrPerTurnAround::12-15           94      0.41%     99.99% # Writes before turning the bus around for reads
system.mem_ctrls2.wrPerTurnAround::16-19            2      0.01%    100.00% # Writes before turning the bus around for reads
system.mem_ctrls2.wrPerTurnAround::total        23035                       # Writes before turning the bus around for reads
system.mem_ctrls2.totQLat                  3348726011                       # Total ticks spent queuing
system.mem_ctrls2.totMemAccLat             6978819761                       # Total ticks spent from burst creation until serviced by the DRAM
system.mem_ctrls2.totBusLat                 968025000                       # Total ticks spent in databus transfers
system.mem_ctrls2.avgQLat                    17296.69                       # Average queueing delay per DRAM burst
system.mem_ctrls2.avgBusLat                   5000.00                       # Average bus latency per DRAM burst
system.mem_ctrls2.avgMemAccLat               36046.69                       # Average memory access latency per DRAM burst
system.mem_ctrls2.avgRdBW                      201.25                       # Average DRAM read bandwidth in MiByte/s
system.mem_ctrls2.avgWrBW                      127.36                       # Average achieved write bandwidth in MiByte/s
system.mem_ctrls2.avgRdBWSys                   201.27                       # Average system read bandwidth in MiByte/s
system.mem_ctrls2.avgWrBWSys                   127.36                       # Average system write bandwidth in MiByte/s
system.mem_ctrls2.peakBW                     12800.00                       # Theoretical peak bandwidth in MiByte/s
system.mem_ctrls2.busUtil                        2.57                       # Data bus utilization in percentage
system.mem_ctrls2.busUtilRead                    1.57                       # Data bus utilization in percentage for reads
system.mem_ctrls2.busUtilWrite                   0.99                       # Data bus utilization in percentage for writes
system.mem_ctrls2.avgRdQLen                      1.09                       # Average read queue length when enqueuing
system.mem_ctrls2.avgWrQLen                      2.90                       # Average write queue length when enqueuing
system.mem_ctrls2.readRowHits                  159295                       # Number of row buffer hits during reads
system.mem_ctrls2.writeRowHits                  93481                       # Number of row buffer hits during writes
system.mem_ctrls2.readRowHitRate                82.28                       # Row buffer hit rate for reads
system.mem_ctrls2.writeRowHitRate               76.30                       # Row buffer hit rate for writes
system.mem_ctrls2.avgGap                    194745.49                       # Average gap between requests
system.mem_ctrls2.pageHitRate                   79.96                       # Row buffer hit rate, read and write combined
system.mem_ctrls2.memoryStateTime::IDLE   11954562750                       # Time in different power states
system.mem_ctrls2.memoryStateTime::REF     2055820000                       # Time in different power states
system.mem_ctrls2.memoryStateTime::PRE_PDN            0                       # Time in different power states
system.mem_ctrls2.memoryStateTime::ACT    47555769750                       # Time in different power states
system.mem_ctrls2.memoryStateTime::ACT_PDN            0                       # Time in different power states
system.mem_ctrls2.actEnergy::0              241829280                       # Energy for activate commands per rank (pJ)
system.mem_ctrls2.actEnergy::1              237006000                       # Energy for activate commands per rank (pJ)
system.mem_ctrls2.preEnergy::0              131950500                       # Energy for precharge commands per rank (pJ)
system.mem_ctrls2.preEnergy::1              129318750                       # Energy for precharge commands per rank (pJ)
system.mem_ctrls2.readEnergy::0             755227200                       # Energy for read commands per rank (pJ)
system.mem_ctrls2.readEnergy::1             754829400                       # Energy for read commands per rank (pJ)
system.mem_ctrls2.writeEnergy::0            396796320                       # Energy for write commands per rank (pJ)
system.mem_ctrls2.writeEnergy::1            397087920                       # Energy for write commands per rank (pJ)
system.mem_ctrls2.refreshEnergy::0         4021183920                       # Energy for refresh commands per rank (pJ)
system.mem_ctrls2.refreshEnergy::1         4021183920                       # Energy for refresh commands per rank (pJ)
system.mem_ctrls2.actBackEnergy::0        24827189895                       # Energy for active background per rank (pJ)
system.mem_ctrls2.actBackEnergy::1        24359393745                       # Energy for active background per rank (pJ)
system.mem_ctrls2.preBackEnergy::0        15161446500                       # Energy for precharge background per rank (pJ)
system.mem_ctrls2.preBackEnergy::1        15571794000                       # Energy for precharge background per rank (pJ)
system.mem_ctrls2.totalEnergy::0          45535623615                       # Total energy per rank (pJ)
system.mem_ctrls2.totalEnergy::1          45470613735                       # Total energy per rank (pJ)
system.mem_ctrls2.averagePower::0          739.621236                       # Core power per rank (mW)
system.mem_ctrls2.averagePower::1          738.565300                       # Core power per rank (mW)
system.mem_ctrls3.bytes_read::ruby.dir_cntrl3     12371392                       # Number of bytes read from this memory
system.mem_ctrls3.bytes_read::total          12371392                       # Number of bytes read from this memory
system.mem_ctrls3.bytes_written::ruby.dir_cntrl3      7839104                       # Number of bytes written to this memory
system.mem_ctrls3.bytes_written::total        7839104                       # Number of bytes written to this memory
system.mem_ctrls3.num_reads::ruby.dir_cntrl3       193303                       # Number of read requests responded to by this memory
system.mem_ctrls3.num_reads::total             193303                       # Number of read requests responded to by this memory
system.mem_ctrls3.num_writes::ruby.dir_cntrl3       122486                       # Number of write requests responded to by this memory
system.mem_ctrls3.num_writes::total            122486                       # Number of write requests responded to by this memory
system.mem_ctrls3.bw_read::ruby.dir_cntrl3    200940097                       # Total read bandwidth from this memory (bytes/s)
system.mem_ctrls3.bw_read::total            200940097                       # Total read bandwidth from this memory (bytes/s)
system.mem_ctrls3.bw_write::ruby.dir_cntrl3    127325229                       # Write bandwidth from this memory (bytes/s)
system.mem_ctrls3.bw_write::total           127325229                       # Write bandwidth from this memory (bytes/s)
system.mem_ctrls3.bw_total::ruby.dir_cntrl3    328265326                       # Total bandwidth to/from this memory (bytes/s)
system.mem_ctrls3.bw_total::total           328265326                       # Total bandwidth to/from this memory (bytes/s)
system.mem_ctrls3.readReqs                     193303                       # Number of read requests accepted
system.mem_ctrls3.writeReqs                    122486                       # Number of write requests accepted
system.mem_ctrls3.readBursts                   193303                       # Number of DRAM read bursts, including those serviced by the write queue
system.mem_ctrls3.writeBursts                  122486                       # Number of DRAM write bursts, including those merged in the write queue
system.mem_ctrls3.bytesReadDRAM              12370624                       # Total number of bytes read from DRAM
system.mem_ctrls3.bytesReadWrQ                    768                       # Total number of bytes read from write queue
system.mem_ctrls3.bytesWritten                7839040                       # Total number of bytes written to DRAM
system.mem_ctrls3.bytesReadSys               12371392                       # Total read bytes from the system interface side
system.mem_ctrls3.bytesWrittenSys             7839104                       # Total written bytes from the system interface side
system.mem_ctrls3.servicedByWrQ                    12                       # Number of DRAM read bursts serviced by the write queue
system.mem_ctrls3.mergedWrBursts                    0                       # Number of DRAM write bursts merged with an existing one
system.mem_ctrls3.neitherReadNorWriteReqs            0                       # Number of requests that are neither read nor write
system.mem_ctrls3.perBankRdBursts::0            11825                       # Per bank write bursts
system.mem_ctrls3.perBankRdBursts::1            11939                       # Per bank write bursts
system.mem_ctrls3.perBankRdBursts::2            11844                       # Per bank write bursts
system.mem_ctrls3.perBankRdBursts::3            12220                       # Per bank write bursts
system.mem_ctrls3.perBankRdBursts::4            12002                       # Per bank write bursts
system.mem_ctrls3.perBankRdBursts::5            12063                       # Per bank write bursts
system.mem_ctrls3.perBankRdBursts::6            12262                       # Per bank write bursts
system.mem_ctrls3.perBankRdBursts::7            12409                       # Per bank write bursts
system.mem_ctrls3.perBankRdBursts::8            12170                       # Per bank write bursts
system.mem_ctrls3.perBankRdBursts::9            12541                       # Per bank write bursts
system.mem_ctrls3.perBankRdBursts::10           12194                       # Per bank write bursts
system.mem_ctrls3.perBankRdBursts::11           12447                       # Per bank write bursts
system.mem_ctrls3.perBankRdBursts::12           11994                       # Per bank write bursts
system.mem_ctrls3.perBankRdBursts::13           11762                       # Per bank write bursts
system.mem_ctrls3.perBankRdBursts::14           11914                       # Per bank write bursts
system.mem_ctrls3.perBankRdBursts::15           11705                       # Per bank write bursts
system.mem_ctrls3.perBankWrBursts::0             7600                       # Per bank write bursts
system.mem_ctrls3.perBankWrBursts::1             7456                       # Per bank write bursts
system.mem_ctrls3.perBankWrBursts::2             7602                       # Per bank write bursts
system.mem_ctrls3.perBankWrBursts::3             7667                       # Per bank write bursts
system.mem_ctrls3.perBankWrBursts::4             7596                       # Per bank write bursts
system.mem_ctrls3.perBankWrBursts::5             7668                       # Per bank write bursts
system.mem_ctrls3.perBankWrBursts::6             7766                       # Per bank write bursts
system.mem_ctrls3.perBankWrBursts::7             7842                       # Per bank write bursts
system.mem_ctrls3.perBankWrBursts::8             7711                       # Per bank write bursts
system.mem_ctrls3.perBankWrBursts::9             7887                       # Per bank write bursts
system.mem_ctrls3.perBankWrBursts::10            7693                       # Per bank write bursts
system.mem_ctrls3.perBankWrBursts::11            7726                       # Per bank write bursts
system.mem_ctrls3.perBankWrBursts::12            7593                       # Per bank write bursts
system.mem_ctrls3.perBankWrBursts::13            7612                       # Per bank write bursts
system.mem_ctrls3.perBankWrBursts::14            7644                       # Per bank write bursts
system.mem_ctrls3.perBankWrBursts::15            7422                       # Per bank write bursts
system.mem_ctrls3.numRdRetry                        0                       # Number of times read queue was full causing retry
system.mem_ctrls3.numWrRetry                      166                       # Number of times write queue was full causing retry
system.mem_ctrls3.totGap                  61566523500                       # Total gap between requests
system.mem_ctrls3.readPktSize::0                    0                       # Read request sizes (log2)
system.mem_ctrls3.readPktSize::1                    0                       # Read request sizes (log2)
system.mem_ctrls3.readPktSize::2                    0                       # Read request sizes (log2)
system.mem_ctrls3.readPktSize::3                    0                       # Read request sizes (log2)
system.mem_ctrls3.readPktSize::4                    0                       # Read request sizes (log2)
system.mem_ctrls3.readPktSize::5                    0                       # Read request sizes (log2)
system.mem_ctrls3.readPktSize::6               193303                       # Read request sizes (log2)
system.mem_ctrls3.writePktSize::0                   0                       # Write request sizes (log2)
system.mem_ctrls3.writePktSize::1                   0                       # Write request sizes (log2)
system.mem_ctrls3.writePktSize::2                   0                       # Write request sizes (log2)
system.mem_ctrls3.writePktSize::3                   0                       # Write request sizes (log2)
system.mem_ctrls3.writePktSize::4                   0                       # Write request sizes (log2)
system.mem_ctrls3.writePktSize::5                   0                       # Write request sizes (log2)
system.mem_ctrls3.writePktSize::6              122486                       # Write request sizes (log2)
system.mem_ctrls3.rdQLenPdf::0                 132266                       # What read queue length does an incoming req see
system.mem_ctrls3.rdQLenPdf::1                  28418                       # What read queue length does an incoming req see
system.mem_ctrls3.rdQLenPdf::2                  15407                       # What read queue length does an incoming req see
system.mem_ctrls3.rdQLenPdf::3                   7739                       # What read queue length does an incoming req see
system.mem_ctrls3.rdQLenPdf::4                   4535                       # What read queue length does an incoming req see
system.mem_ctrls3.rdQLenPdf::5                   2458                       # What read queue length does an incoming req see
system.mem_ctrls3.rdQLenPdf::6                   1412                       # What read queue length does an incoming req see
system.mem_ctrls3.rdQLenPdf::7                    782                       # What read queue length does an incoming req see
system.mem_ctrls3.rdQLenPdf::8                    196                       # What read queue length does an incoming req see
system.mem_ctrls3.rdQLenPdf::9                     51                       # What read queue length does an incoming req see
system.mem_ctrls3.rdQLenPdf::10                    21                       # What read queue length does an incoming req see
system.mem_ctrls3.rdQLenPdf::11                     6                       # What read queue length does an incoming req see
system.mem_ctrls3.rdQLenPdf::12                     0                       # What read queue length does an incoming req see
system.mem_ctrls3.rdQLenPdf::13                     0                       # What read queue length does an incoming req see
system.mem_ctrls3.rdQLenPdf::14                     0                       # What read queue length does an incoming req see
system.mem_ctrls3.rdQLenPdf::15                     0                       # What read queue length does an incoming req see
system.mem_ctrls3.rdQLenPdf::16                     0                       # What read queue length does an incoming req see
system.mem_ctrls3.rdQLenPdf::17                     0                       # What read queue length does an incoming req see
system.mem_ctrls3.rdQLenPdf::18                     0                       # What read queue length does an incoming req see
system.mem_ctrls3.rdQLenPdf::19                     0                       # What read queue length does an incoming req see
system.mem_ctrls3.rdQLenPdf::20                     0                       # What read queue length does an incoming req see
system.mem_ctrls3.rdQLenPdf::21                     0                       # What read queue length does an incoming req see
system.mem_ctrls3.rdQLenPdf::22                     0                       # What read queue length does an incoming req see
[...]
system.ruby.L2Cache_Controller.I_I.L1_GET_INSTR::total            1                      
system.ruby.L2Cache_Controller.I_I.Ack_all |         447      3.29%      3.29% |         421      3.10%      6.39% |         418      3.08%      9.46% |         404      2.97%     12.44% |         412      3.03%     15.47% |         406      2.99%     18.45% |         420      3.09%     21.55% |         417      3.07%     24.61% |         409      3.01%     27.62% |         420      3.09%     30.71% |         449      3.30%     34.02% |         439      3.23%     37.25% |         453      3.33%     40.58% |         434      3.19%     43.77% |         449      3.30%     47.08% |         441      3.25%     50.32% |         451      3.32%     53.64% |         444      3.27%     56.91% |         436      3.21%     60.12% |         405      2.98%     63.10% |         389      2.86%     65.96% |         410      3.02%     68.98% |         409      3.01%     71.99% |         403      2.97%     74.95% |         431      3.17%     78.12% |         454      3.34%     81.46% |         441      3.25%     84.71% |         404      2.97%     87.68% |         417      3.07%     90.75% |         426      3.13%     93.89% |         426      3.13%     97.02% |         405      2.98%    100.00%
system.ruby.L2Cache_Controller.I_I.Ack_all::total        13590                      
system.ruby.L2Cache_Controller.S_I.Ack   |           1      1.23%      1.23% |           2      2.47%      3.70% |           1      1.23%      4.94% |           3      3.70%      8.64% |           3      3.70%     12.35% |           3      3.70%     16.05% |           4      4.94%     20.99% |           3      3.70%     24.69% |           5      6.17%     30.86% |           3      3.70%     34.57% |           2      2.47%     37.04% |           2      2.47%     39.51% |           3      3.70%     43.21% |           3      3.70%     46.91% |           4      4.94%     51.85% |           3      3.70%     55.56% |           3      3.70%     59.26% |           1      1.23%     60.49% |           2      2.47%     62.96% |           0      0.00%     62.96% |           1      1.23%     64.20% |           0      0.00%     64.20% |           1      1.23%     65.43% |           2      2.47%     67.90% |           3      3.70%     71.60% |           5      6.17%     77.78% |           4      4.94%     82.72% |           5      6.17%     88.89% |           3      3.70%     92.59% |           2      2.47%     95.06% |           2      2.47%     97.53% |           2      2.47%    100.00%
system.ruby.L2Cache_Controller.S_I.Ack::total           81                      
system.ruby.L2Cache_Controller.S_I.Ack_all |           1      1.05%      1.05% |           3      3.16%      4.21% |           2      2.11%      6.32% |           4      4.21%     10.53% |           3      3.16%     13.68% |           5      5.26%     18.95% |           6      6.32%     25.26% |           3      3.16%     28.42% |           5      5.26%     33.68% |           3      3.16%     36.84% |           2      2.11%     38.95% |           2      2.11%     41.05% |           4      4.21%     45.26% |           3      3.16%     48.42% |           5      5.26%     53.68% |           3      3.16%     56.84% |           3      3.16%     60.00% |           1      1.05%     61.05% |           3      3.16%     64.21% |           0      0.00%     64.21% |           1      1.05%     65.26% |           0      0.00%     65.26% |           1      1.05%     66.32% |           2      2.11%     68.42% |           4      4.21%     72.63% |           5      5.26%     77.89% |           5      5.26%     83.16% |           6      6.32%     89.47% |           3      3.16%     92.63% |           2      2.11%     94.74% |           2      2.11%     96.84% |           3      3.16%    100.00%
system.ruby.L2Cache_Controller.S_I.Ack_all::total           95                      
system.ruby.L2Cache_Controller.ISS.Mem_Data |       12342      4.30%      4.30% |        8944      3.11%      7.41% |        8953      3.12%     10.53% |        8887      3.09%     13.62% |        8859      3.08%     16.71% |        8857      3.08%     19.79% |        8862      3.09%     22.88% |        8871      3.09%     25.97% |        8884      3.09%     29.06% |        8919      3.11%     32.17% |        8935      3.11%     35.28% |        8860      3.09%     38.36% |        8864      3.09%     41.45% |        8869      3.09%     44.54% |        8880      3.09%     47.63% |        8828      3.07%     50.70% |        8829      3.07%     53.78% |        8825      3.07%     56.85% |        8850      3.08%     59.93% |        8843      3.08%     63.01% |        8847      3.08%     66.09% |        8854      3.08%     69.18% |        8871      3.09%     72.27% |        8850      3.08%     75.35% |        8857      3.08%     78.43% |        8882      3.09%     81.52% |        8851      3.08%     84.61% |        8819      3.07%     87.68% |        8860      3.09%     90.76% |        8844      3.08%     93.84% |        8818      3.07%     96.91% |        8868      3.09%    100.00%
system.ruby.L2Cache_Controller.ISS.Mem_Data::total       287182                      
system.ruby.L2Cache_Controller.IS.Mem_Data |         447      3.29%      3.29% |         421      3.10%      6.38% |         421      3.10%      9.48% |         405      2.98%     12.45% |         411      3.02%     15.48% |         405      2.98%     18.45% |         417      3.07%     21.52% |         418      3.07%     24.59% |         409      3.01%     27.60% |         421      3.10%     30.69% |         447      3.29%     33.98% |         438      3.22%     37.20% |         455      3.35%     40.55% |         434      3.19%     43.74% |         449      3.30%     47.04% |         443      3.26%     50.29% |         453      3.33%     53.62% |         445      3.27%     56.90% |         438      3.22%     60.12% |         409      3.01%     63.12% |         390      2.87%     65.99% |         412      3.03%     69.02% |         408      3.00%     72.02% |         401      2.95%     74.97% |         428      3.15%     78.11% |         452      3.32%     81.44% |         441      3.24%     84.68% |         405      2.98%     87.66% |         419      3.08%     90.74% |         428      3.15%     93.88% |         428      3.15%     97.03% |         404      2.97%    100.00%
system.ruby.L2Cache_Controller.IS.Mem_Data::total        13602                      
system.ruby.L2Cache_Controller.IM.Mem_Data |       14971      3.14%      3.14% |       14887      3.12%      6.26% |       14893      3.12%      9.39% |       14894      3.12%     12.51% |       14885      3.12%     15.63% |       14893      3.12%     18.76% |       14896      3.12%     21.88% |       14889      3.12%     25.00% |       14897      3.12%     28.13% |       14902      3.13%     31.25% |       14883      3.12%     34.38% |       14903      3.13%     37.50% |       14894      3.12%     40.63% |       14895      3.12%     43.75% |       14891      3.12%     46.87% |       14887      3.12%     50.00% |       14906      3.13%     53.12% |       14899      3.13%     56.25% |       14897      3.12%     59.37% |       14902      3.13%     62.50% |       14916      3.13%     65.63% |       14925      3.13%     68.76% |       14888      3.12%     71.88% |       14899      3.13%     75.00% |       14910      3.13%     78.13% |       14902      3.13%     81.26% |       14905      3.13%     84.38% |       14896      3.12%     87.51% |       14889      3.12%     90.63% |       14887      3.12%     93.75% |       14899      3.13%     96.88% |       14884      3.12%    100.00%
system.ruby.L2Cache_Controller.IM.Mem_Data::total       476764                      
system.ruby.L2Cache_Controller.SS_MB.Exclusive_Unblock |           3      6.12%      6.12% |           6     12.24%     18.37% |           2      4.08%     22.45% |           3      6.12%     28.57% |           0      0.00%     28.57% |           0      0.00%     28.57% |           0      0.00%     28.57% |           0      0.00%     28.57% |           1      2.04%     30.61% |           0      0.00%     30.61% |           0      0.00%     30.61% |           1      2.04%     32.65% |           4      8.16%     40.82% |           0      0.00%     40.82% |           2      4.08%     44.90% |           0      0.00%     44.90% |           1      2.04%     46.94% |           2      4.08%     51.02% |          13     26.53%     77.55% |           3      6.12%     83.67% |           0      0.00%     83.67% |           0      0.00%     83.67% |           0      0.00%     83.67% |           0      0.00%     83.67% |           1      2.04%     85.71% |           0      0.00%     85.71% |           3      6.12%     91.84% |           4      8.16%    100.00% |           0      0.00%    100.00% |           0      0.00%    100.00% |           0      0.00%    100.00% |           0      0.00%    100.00%
system.ruby.L2Cache_Controller.SS_MB.Exclusive_Unblock::total           49                      
system.ruby.L2Cache_Controller.MT_MB.Exclusive_Unblock |       75829      7.22%      7.22% |       32862      3.13%     10.35% |       29489      2.81%     13.15% |       32384      3.08%     16.23% |       29780      2.83%     19.07% |       29679      2.82%     21.89% |       29084      2.77%     24.66% |       29696      2.83%     27.49% |       30393      2.89%     30.38% |       29989      2.85%     33.24% |       32544      3.10%     36.33% |       30867      2.94%     39.27% |       30509      2.90%     42.18% |       30302      2.88%     45.06% |       29593      2.82%     47.88% |       30191      2.87%     50.75% |       31316      2.98%     53.73% |       30307      2.88%     56.62% |       30887      2.94%     59.56% |       31616      3.01%     62.56% |       32133      3.06%     65.62% |       37024      3.52%     69.15% |       31250      2.97%     72.12% |       31249      2.97%     75.10% |       31239      2.97%     78.07% |       31238      2.97%     81.04% |       31160      2.97%     84.01% |       30873      2.94%     86.95% |       32685      3.11%     90.06% |       32155      3.06%     93.12% |       34130      3.25%     96.37% |       38162      3.63%    100.00%
system.ruby.L2Cache_Controller.MT_MB.Exclusive_Unblock::total      1050615                      
system.ruby.L2Cache_Controller.MT_IIB.WB_Data |           1      1.23%      1.23% |           2      2.47%      3.70% |           1      1.23%      4.94% |           3      3.70%      8.64% |           3      3.70%     12.35% |           3      3.70%     16.05% |           4      4.94%     20.99% |           3      3.70%     24.69% |           5      6.17%     30.86% |           3      3.70%     34.57% |           2      2.47%     37.04% |           2      2.47%     39.51% |           3      3.70%     43.21% |           3      3.70%     46.91% |           4      4.94%     51.85% |           3      3.70%     55.56% |           3      3.70%     59.26% |           1      1.23%     60.49% |           2      2.47%     62.96% |           0      0.00%     62.96% |           1      1.23%     64.20% |           0      0.00%     64.20% |           1      1.23%     65.43% |           2      2.47%     67.90% |           3      3.70%     71.60% |           5      6.17%     77.78% |           4      4.94%     82.72% |           5      6.17%     88.89% |           3      3.70%     92.59% |           2      2.47%     95.06% |           2      2.47%     97.53% |           2      2.47%    100.00%
system.ruby.L2Cache_Controller.MT_IIB.WB_Data::total           81                      
system.ruby.L2Cache_Controller.MT_IIB.WB_Data_clean |           0      0.00%      0.00% |           0      0.00%      0.00% |           0      0.00%      0.00% |           0      0.00%      0.00% |           0      0.00%      0.00% |           0      0.00%      0.00% |           0      0.00%      0.00% |           0      0.00%      0.00% |           0      0.00%      0.00% |           0      0.00%      0.00% |           0      0.00%      0.00% |           0      0.00%      0.00% |           0      0.00%      0.00% |           0      0.00%      0.00% |           0      0.00%      0.00% |           0      0.00%      0.00% |           0      0.00%      0.00% |           0      0.00%      0.00% |           0      0.00%      0.00% |           0      0.00%      0.00% |           0      0.00%      0.00% |           0      0.00%      0.00% |           0      0.00%      0.00% |           0      0.00%      0.00% |           0      0.00%      0.00% |           0      0.00%      0.00% |           0      0.00%      0.00% |           2    100.00%    100.00% |           0      0.00%    100.00% |           0      0.00%    100.00% |           0      0.00%    100.00% |           0      0.00%    100.00%
system.ruby.L2Cache_Controller.MT_IIB.WB_Data_clean::total            2                      
system.ruby.L2Cache_Controller.MT_SB.Unblock |           1      1.20%      1.20% |           2      2.41%      3.61% |           1      1.20%      4.82% |           3      3.61%      8.43% |           3      3.61%     12.05% |           3      3.61%     15.66% |           4      4.82%     20.48% |           3      3.61%     24.10% |           5      6.02%     30.12% |           3      3.61%     33.73% |           2      2.41%     36.14% |           2      2.41%     38.55% |           3      3.61%     42.17% |           3      3.61%     45.78% |           4      4.82%     50.60% |           3      3.61%     54.22% |           3      3.61%     57.83% |           1      1.20%     59.04% |           2      2.41%     61.45% |           0      0.00%     61.45% |           1      1.20%     62.65% |           0      0.00%     62.65% |           1      1.20%     63.86% |           2      2.41%     66.27% |           3      3.61%     69.88% |           5      6.02%     75.90% |           4      4.82%     80.72% |           7      8.43%     89.16% |           3      3.61%     92.77% |           2      2.41%     95.18% |           2      2.41%     97.59% |           2      2.41%    100.00%
system.ruby.L2Cache_Controller.MT_SB.Unblock::total           83                      
system.ruby.SimicsNetworkPortInterface_Controller.MessageSend |       51647     16.71%     16.71% |      154501     50.00%     66.71% |      102854     33.29%    100.00% |           0      0.00%    100.00% |           0      0.00%    100.00% |           0      0.00%    100.00% |           0      0.00%    100.00% |           0      0.00%    100.00% |           0      0.00%    100.00% |           0      0.00%    100.00% |           0      0.00%    100.00% |           0      0.00%    100.00% |           0      0.00%    100.00% |           0      0.00%    100.00% |           0      0.00%    100.00% |           0      0.00%    100.00% |           0      0.00%    100.00% |           0      0.00%    100.00% |           0      0.00%    100.00% |           0      0.00%    100.00% |           0      0.00%    100.00% |           0      0.00%    100.00% |           0      0.00%    100.00% |           0      0.00%    100.00% |           0      0.00%    100.00% |           0      0.00%    100.00% |           0      0.00%    100.00% |           0      0.00%    100.00% |           0      0.00%    100.00% |           0      0.00%    100.00% |           0      0.00%    100.00% |           0      0.00%    100.00%
system.ruby.SimicsNetworkPortInterface_Controller.MessageSend::total       309002                      
system.ruby.SimicsNetworkPortInterface_Controller.MessageRecv |       51647     16.71%     16.71% |      154501     50.00%     66.71% |      102854     33.29%    100.00% |           0      0.00%    100.00% |           0      0.00%    100.00% |           0      0.00%    100.00% |           0      0.00%    100.00% |           0      0.00%    100.00% |           0      0.00%    100.00% |           0      0.00%    100.00% |           0      0.00%    100.00% |           0      0.00%    100.00% |           0      0.00%    100.00% |           0      0.00%    100.00% |           0      0.00%    100.00% |           0      0.00%    100.00% |           0      0.00%    100.00% |           0      0.00%    100.00% |           0      0.00%    100.00% |           0      0.00%    100.00% |           0      0.00%    100.00% |           0      0.00%    100.00% |           0      0.00%    100.00% |           0      0.00%    100.00% |           0      0.00%    100.00% |           0      0.00%    100.00% |           0      0.00%    100.00% |           0      0.00%    100.00% |           0      0.00%    100.00% |           0      0.00%    100.00% |           0      0.00%    100.00% |           0      0.00%    100.00%
system.ruby.SimicsNetworkPortInterface_Controller.MessageRecv::total       309002                      
system.ruby.SimicsNetworkPortInterface_Controller.A.MessageSend |       51647     16.71%     16.71% |      154501     50.00%     66.71% |      102854     33.29%    100.00% |           0      0.00%    100.00% |           0      0.00%    100.00% |           0      0.00%    100.00% |           0      0.00%    100.00% |           0      0.00%    100.00% |           0      0.00%    100.00% |           0      0.00%    100.00% |           0      0.00%    100.00% |           0      0.00%    100.00% |           0      0.00%    100.00% |           0      0.00%    100.00% |           0      0.00%    100.00% |           0      0.00%    100.00% |           0      0.00%    100.00% |           0      0.00%    100.00% |           0      0.00%    100.00% |           0      0.00%    100.00% |           0      0.00%    100.00% |           0      0.00%    100.00% |           0      0.00%    100.00% |           0      0.00%    100.00% |           0      0.00%    100.00% |           0      0.00%    100.00% |           0      0.00%    100.00% |           0      0.00%    100.00% |           0      0.00%    100.00% |           0      0.00%    100.00% |           0      0.00%    100.00% |           0      0.00%    100.00%
system.ruby.SimicsNetworkPortInterface_Controller.A.MessageSend::total       309002                      
system.ruby.SimicsNetworkPortInterface_Controller.A.MessageRecv |       51647     16.71%     16.71% |      154501     50.00%     66.71% |      102854     33.29%    100.00% |           0      0.00%    100.00% |           0      0.00%    100.00% |           0      0.00%    100.00% |           0      0.00%    100.00% |           0      0.00%    100.00% |           0      0.00%    100.00% |           0      0.00%    100.00% |           0      0.00%    100.00% |           0      0.00%    100.00% |           0      0.00%    100.00% |           0      0.00%    100.00% |           0      0.00%    100.00% |           0      0.00%    100.00% |           0      0.00%    100.00% |           0      0.00%    100.00% |           0      0.00%    100.00% |           0      0.00%    100.00% |           0      0.00%    100.00% |           0      0.00%    100.00% |           0      0.00%    100.00% |           0      0.00%    100.00% |           0      0.00%    100.00% |           0      0.00%    100.00% |           0      0.00%    100.00% |           0      0.00%    100.00% |           0      0.00%    100.00% |           0      0.00%    100.00% |           0      0.00%    100.00% |           0      0.00%    100.00%
system.ruby.SimicsNetworkPortInterface_Controller.A.MessageRecv::total       309002                      
system.switch_cpus.kern.inst.arm                    0                       # number of arm instructions executed
system.switch_cpus.kern.inst.quiesce                0                       # number of quiesce instructions executed

---------- End Simulation Statistics   ----------
