
---------- Begin Simulation Statistics ----------
sim_seconds                                  0.154398                       # Number of seconds simulated
sim_ticks                                154397865500                       # Number of ticks simulated
final_tick                               5330565944000                       # Number of ticks from beginning of simulation (restored from checkpoints and never reset)
sim_freq                                 1000000000000                       # Frequency of simulated ticks
host_inst_rate                                  41378                       # Simulator instruction rate (inst/s)
host_op_rate                                    78615                       # Simulator op (including micro ops) rate (op/s)
host_tick_rate                               97798501                       # Simulator tick rate (ticks/s)
host_mem_usage                                4012516                       # Number of bytes of host memory used
host_seconds                                  1578.73                       # Real time elapsed on the host
sim_insts                                    65325325                       # Number of instructions simulated
sim_ops                                     124112056                       # Number of ops (including micro ops) simulated
system.voltage_domain.voltage                       1                       # Voltage in Volts
system.clk_domain.clock                           500                       # Clock period in ticks
system.mem_ctrls0.bytes_read::ruby.dir_cntrl0     25268928                       # Number of bytes read from this memory
system.mem_ctrls0.bytes_read::total          25268928                       # Number of bytes read from this memory
system.mem_ctrls0.bytes_written::ruby.dir_cntrl0     21423744                       # Number of bytes written to this memory
system.mem_ctrls0.bytes_written::total       21423744                       # Number of bytes written to this memory
system.mem_ctrls0.num_reads::ruby.dir_cntrl0       394827                       # Number of read requests responded to by this memory
system.mem_ctrls0.num_reads::total             394827                       # Number of read requests responded to by this memory
system.mem_ctrls0.num_writes::ruby.dir_cntrl0       334746                       # Number of write requests responded to by this memory
system.mem_ctrls0.num_writes::total            334746                       # Number of write requests responded to by this memory
system.mem_ctrls0.bw_read::ruby.dir_cntrl0    163661123                       # Total read bandwidth from this memory (bytes/s)
system.mem_ctrls0.bw_read::total            163661123                       # Total read bandwidth from this memory (bytes/s)
system.mem_ctrls0.bw_write::ruby.dir_cntrl0    138756737                       # Write bandwidth from this memory (bytes/s)
system.mem_ctrls0.bw_write::total           138756737                       # Write bandwidth from this memory (bytes/s)
system.mem_ctrls0.bw_total::ruby.dir_cntrl0    302417860                       # Total bandwidth to/from this memory (bytes/s)
system.mem_ctrls0.bw_total::total           302417860                       # Total bandwidth to/from this memory (bytes/s)
system.mem_ctrls0.readReqs                     394829                       # Number of read requests accepted
system.mem_ctrls0.writeReqs                    334746                       # Number of write requests accepted
system.mem_ctrls0.readBursts                   394829                       # Number of DRAM read bursts, including those serviced by the write queue
system.mem_ctrls0.writeBursts                  334746                       # Number of DRAM write bursts, including those merged in the write queue
system.mem_ctrls0.bytesReadDRAM              25267328                       # Total number of bytes read from DRAM
system.mem_ctrls0.bytesReadWrQ                   1664                       # Total number of bytes read from write queue
system.mem_ctrls0.bytesWritten               21423552                       # Total number of bytes written to DRAM
system.mem_ctrls0.bytesReadSys               25269056                       # Total read bytes from the system interface side
system.mem_ctrls0.bytesWrittenSys            21423744                       # Total written bytes from the system interface side
system.mem_ctrls0.servicedByWrQ                    26                       # Number of DRAM read bursts serviced by the write queue
system.mem_ctrls0.mergedWrBursts                    0                       # Number of DRAM write bursts merged with an existing one
system.mem_ctrls0.neitherReadNorWriteReqs            0                       # Number of requests that are neither read nor write
system.mem_ctrls0.perBankRdBursts::0            24364                       # Per bank write bursts
system.mem_ctrls0.perBankRdBursts::1            25081                       # Per bank write bursts
system.mem_ctrls0.perBankRdBursts::2            24642                       # Per bank write bursts
system.mem_ctrls0.perBankRdBursts::3            24947                       # Per bank write bursts
system.mem_ctrls0.perBankRdBursts::4            24584                       # Per bank write bursts
system.mem_ctrls0.perBankRdBursts::5            24928                       # Per bank write bursts
system.mem_ctrls0.perBankRdBursts::6            24972                       # Per bank write bursts
system.mem_ctrls0.perBankRdBursts::7            24754                       # Per bank write bursts
system.mem_ctrls0.perBankRdBursts::8            24656                       # Per bank write bursts
system.mem_ctrls0.perBankRdBursts::9            24784                       # Per bank write bursts
system.mem_ctrls0.perBankRdBursts::10           24577                       # Per bank write bursts
system.mem_ctrls0.perBankRdBursts::11           25066                       # Per bank write bursts
system.mem_ctrls0.perBankRdBursts::12           24325                       # Per bank write bursts
system.mem_ctrls0.perBankRdBursts::13           24245                       # Per bank write bursts
system.mem_ctrls0.perBankRdBursts::14           24408                       # Per bank write bursts
system.mem_ctrls0.perBankRdBursts::15           24469                       # Per bank write bursts
system.mem_ctrls0.perBankWrBursts::0            20944                       # Per bank write bursts
system.mem_ctrls0.perBankWrBursts::1            20837                       # Per bank write bursts
system.mem_ctrls0.perBankWrBursts::2            20864                       # Per bank write bursts
system.mem_ctrls0.perBankWrBursts::3            21150                       # Per bank write bursts
system.mem_ctrls0.perBankWrBursts::4            20747                       # Per bank write bursts
system.mem_ctrls0.perBankWrBursts::5            21066                       # Per bank write bursts
system.mem_ctrls0.perBankWrBursts::6            21078                       # Per bank write bursts
system.mem_ctrls0.perBankWrBursts::7            21004                       # Per bank write bursts
system.mem_ctrls0.perBankWrBursts::8            21138                       # Per bank write bursts
system.mem_ctrls0.perBankWrBursts::9            20925                       # Per bank write bursts
system.mem_ctrls0.perBankWrBursts::10           20818                       # Per bank write bursts
system.mem_ctrls0.perBankWrBursts::11           20860                       # Per bank write bursts
system.mem_ctrls0.perBankWrBursts::12           20656                       # Per bank write bursts
system.mem_ctrls0.perBankWrBursts::13           20902                       # Per bank write bursts
system.mem_ctrls0.perBankWrBursts::14           20919                       # Per bank write bursts
system.mem_ctrls0.perBankWrBursts::15           20835                       # Per bank write bursts
system.mem_ctrls0.numRdRetry                     1164                       # Number of times read queue was full causing retry
system.mem_ctrls0.numWrRetry                     6708                       # Number of times write queue was full causing retry
system.mem_ctrls0.totGap                 154397615000                       # Total gap between requests
system.mem_ctrls0.readPktSize::0                    0                       # Read request sizes (log2)
system.mem_ctrls0.readPktSize::1                    0                       # Read request sizes (log2)
system.mem_ctrls0.readPktSize::2                    0                       # Read request sizes (log2)
system.mem_ctrls0.readPktSize::3                    0                       # Read request sizes (log2)
system.mem_ctrls0.readPktSize::4                    0                       # Read request sizes (log2)
system.mem_ctrls0.readPktSize::5                    0                       # Read request sizes (log2)
system.mem_ctrls0.readPktSize::6               394829                       # Read request sizes (log2)
system.mem_ctrls0.writePktSize::0                   0                       # Write request sizes (log2)
system.mem_ctrls0.writePktSize::1                   0                       # Write request sizes (log2)
system.mem_ctrls0.writePktSize::2                   0                       # Write request sizes (log2)
system.mem_ctrls0.writePktSize::3                   0                       # Write request sizes (log2)
system.mem_ctrls0.writePktSize::4                   0                       # Write request sizes (log2)
system.mem_ctrls0.writePktSize::5                   0                       # Write request sizes (log2)
system.mem_ctrls0.writePktSize::6              334746                       # Write request sizes (log2)
system.mem_ctrls0.rdQLenPdf::0                 208786                       # What read queue length does an incoming req see
system.mem_ctrls0.rdQLenPdf::1                  14518                       # What read queue length does an incoming req see
system.mem_ctrls0.rdQLenPdf::2                  14603                       # What read queue length does an incoming req see
system.mem_ctrls0.rdQLenPdf::3                  14026                       # What read queue length does an incoming req see
system.mem_ctrls0.rdQLenPdf::4                  15156                       # What read queue length does an incoming req see
system.mem_ctrls0.rdQLenPdf::5                  15322                       # What read queue length does an incoming req see
system.mem_ctrls0.rdQLenPdf::6                  13978                       # What read queue length does an incoming req see
system.mem_ctrls0.rdQLenPdf::7                  12498                       # What read queue length does an incoming req see
system.mem_ctrls0.rdQLenPdf::8                  11072                       # What read queue length does an incoming req see
system.mem_ctrls0.rdQLenPdf::9                   9655                       # What read queue length does an incoming req see
system.mem_ctrls0.rdQLenPdf::10                  8472                       # What read queue length does an incoming req see
system.mem_ctrls0.rdQLenPdf::11                  7387                       # What read queue length does an incoming req see
system.mem_ctrls0.rdQLenPdf::12                  6468                       # What read queue length does an incoming req see
system.mem_ctrls0.rdQLenPdf::13                  5663                       # What read queue length does an incoming req see
system.mem_ctrls0.rdQLenPdf::14                  5262                       # What read queue length does an incoming req see
system.mem_ctrls0.rdQLenPdf::15                  4619                       # What read queue length does an incoming req see
system.mem_ctrls0.rdQLenPdf::16                  4060                       # What read queue length does an incoming req see
system.mem_ctrls0.rdQLenPdf::17                  3487                       # What read queue length does an incoming req see
system.mem_ctrls0.rdQLenPdf::18                  3056                       # What read queue length does an incoming req see
system.mem_ctrls0.rdQLenPdf::19                  2620                       # What read queue length does an incoming req see
system.mem_ctrls0.rdQLenPdf::20                  2299                       # What read queue length does an incoming req see
system.mem_ctrls0.rdQLenPdf::21                  1934                       # What read queue length does an incoming req see
system.mem_ctrls0.rdQLenPdf::22                  1650                       # What read queue length does an incoming req see
system.mem_ctrls0.rdQLenPdf::23                  1365                       # What read queue length does an incoming req see
system.mem_ctrls0.rdQLenPdf::24                  1175                       # What read queue length does an incoming req see
system.mem_ctrls0.rdQLenPdf::25                   993                       # What read queue length does an incoming req see
system.mem_ctrls0.rdQLenPdf::26                   868                       # What read queue length does an incoming req see
system.mem_ctrls0.rdQLenPdf::27                   729                       # What read queue length does an incoming req see
system.mem_ctrls0.rdQLenPdf::28                   599                       # What read queue length does an incoming req see
system.mem_ctrls0.rdQLenPdf::29                   528                       # What read queue length does an incoming req see
system.mem_ctrls0.rdQLenPdf::30                   430                       # What read queue length does an incoming req see
system.mem_ctrls0.rdQLenPdf::31                  1525                       # What read queue length does an incoming req see
system.mem_ctrls0.wrQLenPdf::0                  53033                       # What write queue length does an incoming req see
system.mem_ctrls0.wrQLenPdf::1                  59676                       # What write queue length does an incoming req see
system.mem_ctrls0.wrQLenPdf::2                  62224                       # What write queue length does an incoming req see
system.mem_ctrls0.wrQLenPdf::3                  62014                       # What write queue length does an incoming req see
system.mem_ctrls0.wrQLenPdf::4                  60998                       # What write queue length does an incoming req see
system.mem_ctrls0.wrQLenPdf::5                  13200                       # What write queue length does an incoming req see
system.mem_ctrls0.wrQLenPdf::6                  11051                       # What write queue length does an incoming req see
system.mem_ctrls0.wrQLenPdf::7                  12550                       # What write queue length does an incoming req see
system.mem_ctrls0.bytesPerActivate::samples       213803                       # Bytes accessed per row activation
system.mem_ctrls0.bytesPerActivate::mean   218.378526                       # Bytes accessed per row activation
system.mem_ctrls0.bytesPerActivate::gmean   164.361983                       # Bytes accessed per row activation
system.mem_ctrls0.bytesPerActivate::stdev   179.442921                       # Bytes accessed per row activation
system.mem_ctrls0.bytesPerActivate::0-127        65812     30.78%     30.78% # Bytes accessed per row activation
system.mem_ctrls0.bytesPerActivate::128-255        59820     27.98%     58.76% # Bytes accessed per row activation
system.mem_ctrls0.bytesPerActivate::256-383        67374     31.51%     90.27% # Bytes accessed per row activation
system.mem_ctrls0.bytesPerActivate::384-511         7642      3.57%     93.85% # Bytes accessed per row activation
system.mem_ctrls0.bytesPerActivate::512-639         4544      2.13%     95.97% # Bytes accessed per row activation
system.mem_ctrls0.bytesPerActivate::640-767         2493      1.17%     97.14% # Bytes accessed per row activation
system.mem_ctrls0.bytesPerActivate::768-895         1672      0.78%     97.92% # Bytes accessed per row activation
system.mem_ctrls0.bytesPerActivate::896-1023         1417      0.66%     98.58% # Bytes accessed per row activation
system.mem_ctrls0.bytesPerActivate::1024-1151         3029      1.42%    100.00% # Bytes accessed per row activation
system.mem_ctrls0.bytesPerActivate::total       213803                       # Bytes accessed per row activation
system.mem_ctrls0.rdPerTurnAround::samples        54473                       # Reads before turning the bus around for writes
system.mem_ctrls0.rdPerTurnAround::mean      7.247664                       # Reads before turning the bus around for writes
system.mem_ctrls0.rdPerTurnAround::stdev    17.970486                       # Reads before turning the bus around for writes
system.mem_ctrls0.rdPerTurnAround::0-127        54465     99.99%     99.99% # Reads before turning the bus around for writes
system.mem_ctrls0.rdPerTurnAround::128-255            7      0.01%    100.00% # Reads before turning the bus around for writes
system.mem_ctrls0.rdPerTurnAround::3968-4095            1      0.00%    100.00% # Reads before turning the bus around for writes
system.mem_ctrls0.rdPerTurnAround::total        54473                       # Reads before turning the bus around for writes
system.mem_ctrls0.wrPerTurnAround::samples        54472                       # Writes before turning the bus around for reads
system.mem_ctrls0.wrPerTurnAround::mean      6.145194                       # Writes before turning the bus around for reads
system.mem_ctrls0.wrPerTurnAround::gmean     5.792365                       # Writes before turning the bus around for reads
system.mem_ctrls0.wrPerTurnAround::stdev     2.626767                       # Writes before turning the bus around for reads
system.mem_ctrls0.wrPerTurnAround::4-7          45790     84.06%     84.06% # Writes before turning the bus around for reads
system.mem_ctrls0.wrPerTurnAround::8-11          5023      9.22%     93.28% # Writes before turning the bus around for reads
system.mem_ctrls0.wrPerTurnAround::12-15         1941      3.56%     96.85% # Writes before turning the bus around for reads
system.mem_ctrls0.wrPerTurnAround::16-19         1718      3.15%    100.00% # Writes before turning the bus around for reads
system.mem_ctrls0.wrPerTurnAround::total        54472                       # Writes before turning the bus around for reads
system.mem_ctrls0.totQLat                 25936517845                       # Total ticks spent queuing
system.mem_ctrls0.totMemAccLat            33339055345                       # Total ticks spent from burst creation until serviced by the DRAM
system.mem_ctrls0.totBusLat                1974010000                       # Total ticks spent in databus transfers
system.mem_ctrls0.avgQLat                    65694.83                       # Average queueing delay per DRAM burst
system.mem_ctrls0.avgBusLat                   4999.99                       # Average bus latency per DRAM burst
system.mem_ctrls0.avgMemAccLat               84444.79                       # Average memory access latency per DRAM burst
system.mem_ctrls0.avgRdBW                      163.65                       # Average DRAM read bandwidth in MiByte/s
system.mem_ctrls0.avgWrBW                      138.76                       # Average achieved write bandwidth in MiByte/s
system.mem_ctrls0.avgRdBWSys                   163.66                       # Average system read bandwidth in MiByte/s
system.mem_ctrls0.avgWrBWSys                   138.76                       # Average system write bandwidth in MiByte/s
system.mem_ctrls0.peakBW                     12800.00                       # Theoretical peak bandwidth in MiByte/s
system.mem_ctrls0.busUtil                        2.36                       # Data bus utilization in percentage
system.mem_ctrls0.busUtilRead                    1.28                       # Data bus utilization in percentage for reads
system.mem_ctrls0.busUtilWrite                   1.08                       # Data bus utilization in percentage for writes
system.mem_ctrls0.avgRdQLen                      1.19                       # Average read queue length when enqueuing
system.mem_ctrls0.avgWrQLen                      2.97                       # Average write queue length when enqueuing
system.mem_ctrls0.readRowHits                  291413                       # Number of row buffer hits during reads
system.mem_ctrls0.writeRowHits                 224319                       # Number of row buffer hits during writes
system.mem_ctrls0.readRowHitRate                73.81                       # Row buffer hit rate for reads
system.mem_ctrls0.writeRowHitRate               67.01                       # Row buffer hit rate for writes
system.mem_ctrls0.avgGap                    211626.79                       # Average gap between requests
system.mem_ctrls0.pageHitRate                   70.69                       # Row buffer hit rate, read and write combined
system.mem_ctrls0.memoryStateTime::IDLE   26566497500                       # Time in different power states
system.mem_ctrls0.memoryStateTime::REF     5155540000                       # Time in different power states
system.mem_ctrls0.memoryStateTime::PRE_PDN            0                       # Time in different power states
system.mem_ctrls0.memoryStateTime::ACT   122672227000                       # Time in different power states
system.mem_ctrls0.memoryStateTime::ACT_PDN            0                       # Time in different power states
system.mem_ctrls0.actEnergy::0              813319920                       # Energy for activate commands per rank (pJ)
system.mem_ctrls0.actEnergy::1              802962720                       # Energy for activate commands per rank (pJ)
system.mem_ctrls0.preEnergy::0              443775750                       # Energy for precharge commands per rank (pJ)
system.mem_ctrls0.preEnergy::1              438124500                       # Energy for precharge commands per rank (pJ)
system.mem_ctrls0.readEnergy::0            1546435800                       # Energy for read commands per rank (pJ)
system.mem_ctrls0.readEnergy::1            1532848200                       # Energy for read commands per rank (pJ)
system.mem_ctrls0.writeEnergy::0           1086611760                       # Energy for write commands per rank (pJ)
system.mem_ctrls0.writeEnergy::1           1082477520                       # Energy for write commands per rank (pJ)
system.mem_ctrls0.refreshEnergy::0        10084236240                       # Energy for refresh commands per rank (pJ)
system.mem_ctrls0.refreshEnergy::1        10084236240                       # Energy for refresh commands per rank (pJ)
system.mem_ctrls0.actBackEnergy::0        61510708395                       # Energy for active background per rank (pJ)
system.mem_ctrls0.actBackEnergy::1        61253841600                       # Energy for active background per rank (pJ)
system.mem_ctrls0.preBackEnergy::0        38679525000                       # Energy for precharge background per rank (pJ)
system.mem_ctrls0.preBackEnergy::1        38904846750                       # Energy for precharge background per rank (pJ)
system.mem_ctrls0.totalEnergy::0         114164612865                       # Total energy per rank (pJ)
system.mem_ctrls0.totalEnergy::1         114099337530                       # Total energy per rank (pJ)
system.mem_ctrls0.averagePower::0          739.437753                       # Core power per rank (mW)
system.mem_ctrls0.averagePower::1          739.014968                       # Core power per rank (mW)
system.mem_ctrls1.bytes_read::ruby.dir_cntrl1     24511168                       # Number of bytes read from this memory
system.mem_ctrls1.bytes_read::total          24511168                       # Number of bytes read from this memory
system.mem_ctrls1.bytes_written::ruby.dir_cntrl1     20686848                       # Number of bytes written to this memory
system.mem_ctrls1.bytes_written::total       20686848                       # Number of bytes written to this memory
system.mem_ctrls1.num_reads::ruby.dir_cntrl1       382987                       # Number of read requests responded to by this memory
system.mem_ctrls1.num_reads::total             382987                       # Number of read requests responded to by this memory
system.mem_ctrls1.num_writes::ruby.dir_cntrl1       323232                       # Number of write requests responded to by this memory
system.mem_ctrls1.num_writes::total            323232                       # Number of write requests responded to by this memory
system.mem_ctrls1.bw_read::ruby.dir_cntrl1    158753283                       # Total read bandwidth from this memory (bytes/s)
system.mem_ctrls1.bw_read::total            158753283                       # Total read bandwidth from this memory (bytes/s)
system.mem_ctrls1.bw_write::ruby.dir_cntrl1    133984028                       # Write bandwidth from this memory (bytes/s)
system.mem_ctrls1.bw_write::total           133984028                       # Write bandwidth from this memory (bytes/s)
system.mem_ctrls1.bw_total::ruby.dir_cntrl1    292737311                       # Total bandwidth to/from this memory (bytes/s)
system.mem_ctrls1.bw_total::total           292737311                       # Total bandwidth to/from this memory (bytes/s)
system.mem_ctrls1.readReqs                     382987                       # Number of read requests accepted
system.mem_ctrls1.writeReqs                    323232                       # Number of write requests accepted
system.mem_ctrls1.readBursts                   382987                       # Number of DRAM read bursts, including those serviced by the write queue
system.mem_ctrls1.writeBursts                  323232                       # Number of DRAM write bursts, including those merged in the write queue
system.mem_ctrls1.bytesReadDRAM              24509632                       # Total number of bytes read from DRAM
system.mem_ctrls1.bytesReadWrQ                   1536                       # Total number of bytes read from write queue
system.mem_ctrls1.bytesWritten               20686656                       # Total number of bytes written to DRAM
system.mem_ctrls1.bytesReadSys               24511168                       # Total read bytes from the system interface side
system.mem_ctrls1.bytesWrittenSys            20686848                       # Total written bytes from the system interface side
system.mem_ctrls1.servicedByWrQ                    24                       # Number of DRAM read bursts serviced by the write queue
system.mem_ctrls1.mergedWrBursts                    0                       # Number of DRAM write bursts merged with an existing one
system.mem_ctrls1.neitherReadNorWriteReqs            0                       # Number of requests that are neither read nor write
system.mem_ctrls1.perBankRdBursts::0            23653                       # Per bank write bursts
system.mem_ctrls1.perBankRdBursts::1            24332                       # Per bank write bursts
system.mem_ctrls1.perBankRdBursts::2            23897                       # Per bank write bursts
system.mem_ctrls1.perBankRdBursts::3            24204                       # Per bank write bursts
system.mem_ctrls1.perBankRdBursts::4            23873                       # Per bank write bursts
system.mem_ctrls1.perBankRdBursts::5            24188                       # Per bank write bursts
system.mem_ctrls1.perBankRdBursts::6            24231                       # Per bank write bursts
system.mem_ctrls1.perBankRdBursts::7            24044                       # Per bank write bursts
system.mem_ctrls1.perBankRdBursts::8            23920                       # Per bank write bursts
system.mem_ctrls1.perBankRdBursts::9            24039                       # Per bank write bursts
system.mem_ctrls1.perBankRdBursts::10           23809                       # Per bank write bursts
system.mem_ctrls1.perBankRdBursts::11           24338                       # Per bank write bursts
system.mem_ctrls1.perBankRdBursts::12           23594                       # Per bank write bursts
system.mem_ctrls1.perBankRdBursts::13           23492                       # Per bank write bursts
system.mem_ctrls1.perBankRdBursts::14           23598                       # Per bank write bursts
system.mem_ctrls1.perBankRdBursts::15           23751                       # Per bank write bursts
system.mem_ctrls1.perBankWrBursts::0            20225                       # Per bank write bursts
system.mem_ctrls1.perBankWrBursts::1            20130                       # Per bank write bursts
system.mem_ctrls1.perBankWrBursts::2            20161                       # Per bank write bursts
system.mem_ctrls1.perBankWrBursts::3            20442                       # Per bank write bursts
system.mem_ctrls1.perBankWrBursts::4            20038                       # Per bank write bursts
system.mem_ctrls1.perBankWrBursts::5            20358                       # Per bank write bursts
system.mem_ctrls1.perBankWrBursts::6            20346                       # Per bank write bursts
system.mem_ctrls1.perBankWrBursts::7            20273                       # Per bank write bursts
system.mem_ctrls1.perBankWrBursts::8            20414                       # Per bank write bursts
system.mem_ctrls1.perBankWrBursts::9            20201                       # Per bank write bursts
system.mem_ctrls1.perBankWrBursts::10           20102                       # Per bank write bursts
system.mem_ctrls1.perBankWrBursts::11           20146                       # Per bank write bursts
system.mem_ctrls1.perBankWrBursts::12           19938                       # Per bank write bursts
system.mem_ctrls1.perBankWrBursts::13           20182                       # Per bank write bursts
system.mem_ctrls1.perBankWrBursts::14           20149                       # Per bank write bursts
system.mem_ctrls1.perBankWrBursts::15           20124                       # Per bank write bursts
system.mem_ctrls1.numRdRetry                      411                       # Number of times read queue was full causing retry
system.mem_ctrls1.numWrRetry                     6170                       # Number of times write queue was full causing retry
system.mem_ctrls1.totGap                 154397111000                       # Total gap between requests
system.mem_ctrls1.readPktSize::0                    0                       # Read request sizes (log2)
system.mem_ctrls1.readPktSize::1                    0                       # Read request sizes (log2)
system.mem_ctrls1.readPktSize::2                    0                       # Read request sizes (log2)
system.mem_ctrls1.readPktSize::3                    0                       # Read request sizes (log2)
system.mem_ctrls1.readPktSize::4                    0                       # Read request sizes (log2)
system.mem_ctrls1.readPktSize::5                    0                       # Read request sizes (log2)
system.mem_ctrls1.readPktSize::6               382987                       # Read request sizes (log2)
system.mem_ctrls1.writePktSize::0                   0                       # Write request sizes (log2)
system.mem_ctrls1.writePktSize::1                   0                       # Write request sizes (log2)
system.mem_ctrls1.writePktSize::2                   0                       # Write request sizes (log2)
system.mem_ctrls1.writePktSize::3                   0                       # Write request sizes (log2)
system.mem_ctrls1.writePktSize::4                   0                       # Write request sizes (log2)
system.mem_ctrls1.writePktSize::5                   0                       # Write request sizes (log2)
system.mem_ctrls1.writePktSize::6              323232                       # Write request sizes (log2)
system.mem_ctrls1.rdQLenPdf::0                 204588                       # What read queue length does an incoming req see
system.mem_ctrls1.rdQLenPdf::1                  10533                       # What read queue length does an incoming req see
system.mem_ctrls1.rdQLenPdf::2                  13136                       # What read queue length does an incoming req see
system.mem_ctrls1.rdQLenPdf::3                  15213                       # What read queue length does an incoming req see
system.mem_ctrls1.rdQLenPdf::4                  16599                       # What read queue length does an incoming req see
system.mem_ctrls1.rdQLenPdf::5                  16314                       # What read queue length does an incoming req see
system.mem_ctrls1.rdQLenPdf::6                  14890                       # What read queue length does an incoming req see
system.mem_ctrls1.rdQLenPdf::7                  13021                       # What read queue length does an incoming req see
system.mem_ctrls1.rdQLenPdf::8                  11295                       # What read queue length does an incoming req see
system.mem_ctrls1.rdQLenPdf::9                   9611                       # What read queue length does an incoming req see
system.mem_ctrls1.rdQLenPdf::10                  8255                       # What read queue length does an incoming req see
system.mem_ctrls1.rdQLenPdf::11                  7110                       # What read queue length does an incoming req see
system.mem_ctrls1.rdQLenPdf::12                  6079                       # What read queue length does an incoming req see
system.mem_ctrls1.rdQLenPdf::13                  5287                       # What read queue length does an incoming req see
system.mem_ctrls1.rdQLenPdf::14                  4656                       # What read queue length does an incoming req see
system.mem_ctrls1.rdQLenPdf::15                  4021                       # What read queue length does an incoming req see
system.mem_ctrls1.rdQLenPdf::16                  3438                       # What read queue length does an incoming req see
system.mem_ctrls1.rdQLenPdf::17                  3079                       # What read queue length does an incoming req see
system.mem_ctrls1.rdQLenPdf::18                  2606                       # What read queue length does an incoming req see
system.mem_ctrls1.rdQLenPdf::19                  2236                       # What read queue length does an incoming req see
system.mem_ctrls1.rdQLenPdf::20                  1954                       # What read queue length does an incoming req see
system.mem_ctrls1.rdQLenPdf::21                  1672                       # What read queue length does an incoming req see
system.mem_ctrls1.rdQLenPdf::22                  1416                       # What read queue length does an incoming req see
system.mem_ctrls1.rdQLenPdf::23                  1182                       # What read queue length does an incoming req see
system.mem_ctrls1.rdQLenPdf::24                   999                       # What read queue length does an incoming req see
system.mem_ctrls1.rdQLenPdf::25                   846                       # What read queue length does an incoming req see
system.mem_ctrls1.rdQLenPdf::26                   683                       # What read queue length does an incoming req see
system.mem_ctrls1.rdQLenPdf::27                   555                       # What read queue length does an incoming req see
system.mem_ctrls1.rdQLenPdf::28                   475                       # What read queue length does an incoming req see
system.mem_ctrls1.rdQLenPdf::29                   355                       # What read queue length does an incoming req see
system.mem_ctrls1.rdQLenPdf::30                   250                       # What read queue length does an incoming req see
system.mem_ctrls1.rdQLenPdf::31                   609                       # What read queue length does an incoming req see
system.mem_ctrls1.wrQLenPdf::0                  51436                       # What write queue length does an incoming req see
system.mem_ctrls1.wrQLenPdf::1                  57847                       # What write queue length does an incoming req see
system.mem_ctrls1.wrQLenPdf::2                  59726                       # What write queue length does an incoming req see
system.mem_ctrls1.wrQLenPdf::3                  59980                       # What write queue length does an incoming req see
system.mem_ctrls1.wrQLenPdf::4                  59335                       # What write queue length does an incoming req see
system.mem_ctrls1.wrQLenPdf::5                  12672                       # What write queue length does an incoming req see
system.mem_ctrls1.wrQLenPdf::6                  10502                       # What write queue length does an incoming req see
system.mem_ctrls1.wrQLenPdf::7                  11734                       # What write queue length does an incoming req see
system.mem_ctrls1.bytesPerActivate::samples       187426                       # Bytes accessed per row activation
system.mem_ctrls1.bytesPerActivate::mean   241.136235                       # Bytes accessed per row activation
system.mem_ctrls1.bytesPerActivate::gmean   187.084585                       # Bytes accessed per row activation
system.mem_ctrls1.bytesPerActivate::stdev   185.763321                       # Bytes accessed per row activation
system.mem_ctrls1.bytesPerActivate::0-127        40448     21.58%     21.58% # Bytes accessed per row activation
system.mem_ctrls1.bytesPerActivate::128-255        58926     31.44%     53.02% # Bytes accessed per row activation
system.mem_ctrls1.bytesPerActivate::256-383        66916     35.70%     88.72% # Bytes accessed per row activation
system.mem_ctrls1.bytesPerActivate::384-511         7306      3.90%     92.62% # Bytes accessed per row activation
system.mem_ctrls1.bytesPerActivate::512-639         4632      2.47%     95.09% # Bytes accessed per row activation
system.mem_ctrls1.bytesPerActivate::640-767         2484      1.33%     96.42% # Bytes accessed per row activation
system.mem_ctrls1.bytesPerActivate::768-895         1828      0.98%     97.39% # Bytes accessed per row activation
system.mem_ctrls1.bytesPerActivate::896-1023         1249      0.67%     98.06% # Bytes accessed per row activation
system.mem_ctrls1.bytesPerActivate::1024-1151         3637      1.94%    100.00% # Bytes accessed per row activation
system.mem_ctrls1.bytesPerActivate::total       187426                       # Bytes accessed per row activation
system.mem_ctrls1.rdPerTurnAround::samples        52773                       # Reads before turning the bus around for writes
system.mem_ctrls1.rdPerTurnAround::mean      7.256571                       # Reads before turning the bus around for writes
system.mem_ctrls1.rdPerTurnAround::stdev    14.653634                       # Reads before turning the bus around for writes
system.mem_ctrls1.rdPerTurnAround::0-127        52767     99.99%     99.99% # Reads before turning the bus around for writes
system.mem_ctrls1.rdPerTurnAround::128-255            4      0.01%    100.00% # Reads before turning the bus around for writes
system.mem_ctrls1.rdPerTurnAround::1152-1279            1      0.00%    100.00% # Reads before turning the bus around for writes
system.mem_ctrls1.rdPerTurnAround::2816-2943            1      0.00%    100.00% # Reads before turning the bus around for writes
system.mem_ctrls1.rdPerTurnAround::total        52773                       # Reads before turning the bus around for writes
system.mem_ctrls1.wrPerTurnAround::samples        52773                       # Writes before turning the bus around for reads
system.mem_ctrls1.wrPerTurnAround::mean      6.124893                       # Writes before turning the bus around for reads
system.mem_ctrls1.wrPerTurnAround::gmean     5.778244                       # Writes before turning the bus around for reads
system.mem_ctrls1.wrPerTurnAround::stdev     2.595554                       # Writes before turning the bus around for reads
system.mem_ctrls1.wrPerTurnAround::4-7          44276     83.90%     83.90% # Writes before turning the bus around for reads
system.mem_ctrls1.wrPerTurnAround::8-11          5031      9.53%     93.43% # Writes before turning the bus around for reads
system.mem_ctrls1.wrPerTurnAround::12-15         1911      3.62%     97.05% # Writes before turning the bus around for reads
system.mem_ctrls1.wrPerTurnAround::16-19         1555      2.95%    100.00% # Writes before turning the bus around for reads
system.mem_ctrls1.wrPerTurnAround::total        52773                       # Writes before turning the bus around for reads
system.mem_ctrls1.totQLat                 23535738668                       # Total ticks spent queuing
system.mem_ctrls1.totMemAccLat            30716294918                       # Total ticks spent from burst creation until serviced by the DRAM
system.mem_ctrls1.totBusLat                1914815000                       # Total ticks spent in databus transfers
system.mem_ctrls1.avgQLat                    61456.95                       # Average queueing delay per DRAM burst
system.mem_ctrls1.avgBusLat                   5000.00                       # Average bus latency per DRAM burst
system.mem_ctrls1.avgMemAccLat               80206.95                       # Average memory access latency per DRAM burst
system.mem_ctrls1.avgRdBW                      158.74                       # Average DRAM read bandwidth in MiByte/s
system.mem_ctrls1.avgWrBW                      133.98                       # Average achieved write bandwidth in MiByte/s
system.mem_ctrls1.avgRdBWSys                   158.75                       # Average system read bandwidth in MiByte/s
system.mem_ctrls1.avgWrBWSys                   133.98                       # Average system write bandwidth in MiByte/s
system.mem_ctrls1.peakBW                     12800.00                       # Theoretical peak bandwidth in MiByte/s
system.mem_ctrls1.busUtil                        2.29                       # Data bus utilization in percentage
system.mem_ctrls1.busUtilRead                    1.24                       # Data bus utilization in percentage for reads
system.mem_ctrls1.busUtilWrite                   1.05                       # Data bus utilization in percentage for writes
system.mem_ctrls1.avgRdQLen                      1.17                       # Average read queue length when enqueuing
system.mem_ctrls1.avgWrQLen                      2.98                       # Average write queue length when enqueuing
system.mem_ctrls1.readRowHits                  288497                       # Number of row buffer hits during reads
system.mem_ctrls1.writeRowHits                 230261                       # Number of row buffer hits during writes
system.mem_ctrls1.readRowHitRate                75.33                       # Row buffer hit rate for reads
system.mem_ctrls1.writeRowHitRate               71.24                       # Row buffer hit rate for writes
system.mem_ctrls1.avgGap                    218624.97                       # Average gap between requests
system.mem_ctrls1.pageHitRate                   73.46                       # Row buffer hit rate, read and write combined
system.mem_ctrls1.memoryStateTime::IDLE   27042232250                       # Time in different power states
system.mem_ctrls1.memoryStateTime::REF     5155540000                       # Time in different power states
system.mem_ctrls1.memoryStateTime::PRE_PDN            0                       # Time in different power states
system.mem_ctrls1.memoryStateTime::ACT   122196272250                       # Time in different power states
system.mem_ctrls1.memoryStateTime::ACT_PDN            0                       # Time in different power states
system.mem_ctrls1.actEnergy::0              714306600                       # Energy for activate commands per rank (pJ)
system.mem_ctrls1.actEnergy::1              702618840                       # Energy for activate commands per rank (pJ)
system.mem_ctrls1.preEnergy::0              389750625                       # Energy for precharge commands per rank (pJ)
system.mem_ctrls1.preEnergy::1              383373375                       # Energy for precharge commands per rank (pJ)
system.mem_ctrls1.readEnergy::0            1500821400                       # Energy for read commands per rank (pJ)
system.mem_ctrls1.readEnergy::1            1486157400                       # Energy for read commands per rank (pJ)
system.mem_ctrls1.writeEnergy::0           1049572080                       # Energy for write commands per rank (pJ)
system.mem_ctrls1.writeEnergy::1           1044919440                       # Energy for write commands per rank (pJ)
system.mem_ctrls1.refreshEnergy::0        10084236240                       # Energy for refresh commands per rank (pJ)
system.mem_ctrls1.refreshEnergy::1        10084236240                       # Energy for refresh commands per rank (pJ)
system.mem_ctrls1.actBackEnergy::0        60477619590                       # Energy for active background per rank (pJ)
system.mem_ctrls1.actBackEnergy::1        60001571835                       # Energy for active background per rank (pJ)
system.mem_ctrls1.preBackEnergy::0        39585743250                       # Energy for precharge background per rank (pJ)
system.mem_ctrls1.preBackEnergy::1        40003329000                       # Energy for precharge background per rank (pJ)
system.mem_ctrls1.totalEnergy::0         113802049785                       # Total energy per rank (pJ)
system.mem_ctrls1.totalEnergy::1         113706206130                       # Total energy per rank (pJ)
system.mem_ctrls1.averagePower::0          737.089452                       # Core power per rank (mW)
system.mem_ctrls1.averagePower::1          736.468678                       # Core power per rank (mW)
system.mem_ctrls2.bytes_read::ruby.dir_cntrl2     24511424                       # Number of bytes read from this memory
system.mem_ctrls2.bytes_read::total          24511424                       # Number of bytes read from this memory
system.mem_ctrls2.bytes_written::ruby.dir_cntrl2     20688448                       # Number of bytes written to this memory
system.mem_ctrls2.bytes_written::total       20688448                       # Number of bytes written to this memory
system.mem_ctrls2.num_reads::ruby.dir_cntrl2       382991                       # Number of read requests responded to by this memory
system.mem_ctrls2.num_reads::total             382991                       # Number of read requests responded to by this memory
system.mem_ctrls2.num_writes::ruby.dir_cntrl2       323257                       # Number of write requests responded to by this memory
system.mem_ctrls2.num_writes::total            323257                       # Number of write requests responded to by this memory
system.mem_ctrls2.bw_read::ruby.dir_cntrl2    158754941                       # Total read bandwidth from this memory (bytes/s)
system.mem_ctrls2.bw_read::total            158754941                       # Total read bandwidth from this memory (bytes/s)
system.mem_ctrls2.bw_write::ruby.dir_cntrl2    133994391                       # Write bandwidth from this memory (bytes/s)
system.mem_ctrls2.bw_write::total           133994391                       # Write bandwidth from this memory (bytes/s)
system.mem_ctrls2.bw_total::ruby.dir_cntrl2    292749332                       # Total bandwidth to/from this memory (bytes/s)
system.mem_ctrls2.bw_total::total           292749332                       # Total bandwidth to/from this memory (bytes/s)
system.mem_ctrls2.readReqs                     382991                       # Number of read requests accepted
system.mem_ctrls2.writeReqs                    323257                       # Number of write requests accepted
system.mem_ctrls2.readBursts                   382991                       # Number of DRAM read bursts, including those serviced by the write queue
system.mem_ctrls2.writeBursts                  323257                       # Number of DRAM write bursts, including those merged in the write queue
system.mem_ctrls2.bytesReadDRAM              24510272                       # Total number of bytes read from DRAM
system.mem_ctrls2.bytesReadWrQ                   1152                       # Total number of bytes read from write queue
system.mem_ctrls2.bytesWritten               20688448                       # Total number of bytes written to DRAM
system.mem_ctrls2.bytesReadSys               24511424                       # Total read bytes from the system interface side
system.mem_ctrls2.bytesWrittenSys            20688448                       # Total written bytes from the system interface side
system.mem_ctrls2.servicedByWrQ                    18                       # Number of DRAM read bursts serviced by the write queue
system.mem_ctrls2.mergedWrBursts                    0                       # Number of DRAM write bursts merged with an existing one
system.mem_ctrls2.neitherReadNorWriteReqs            0                       # Number of requests that are neither read nor write
system.mem_ctrls2.perBankRdBursts::0            23641                       # Per bank write bursts
system.mem_ctrls2.perBankRdBursts::1            24306                       # Per bank write bursts
system.mem_ctrls2.perBankRdBursts::2            23941                       # Per bank write bursts
system.mem_ctrls2.perBankRdBursts::3            24276                       # Per bank write bursts
system.mem_ctrls2.perBankRdBursts::4            23873                       # Per bank write bursts
system.mem_ctrls2.perBankRdBursts::5            24158                       # Per bank write bursts
system.mem_ctrls2.perBankRdBursts::6            24231                       # Per bank write bursts
system.mem_ctrls2.perBankRdBursts::7            24031                       # Per bank write bursts
system.mem_ctrls2.perBankRdBursts::8            23901                       # Per bank write bursts
system.mem_ctrls2.perBankRdBursts::9            24047                       # Per bank write bursts
system.mem_ctrls2.perBankRdBursts::10           23816                       # Per bank write bursts
system.mem_ctrls2.perBankRdBursts::11           24323                       # Per bank write bursts
system.mem_ctrls2.perBankRdBursts::12           23625                       # Per bank write bursts
system.mem_ctrls2.perBankRdBursts::13           23436                       # Per bank write bursts
system.mem_ctrls2.perBankRdBursts::14           23589                       # Per bank write bursts
system.mem_ctrls2.perBankRdBursts::15           23779                       # Per bank write bursts
system.mem_ctrls2.perBankWrBursts::0            20219                       # Per bank write bursts
system.mem_ctrls2.perBankWrBursts::1            20127                       # Per bank write bursts
system.mem_ctrls2.perBankWrBursts::2            20164                       # Per bank write bursts
system.mem_ctrls2.perBankWrBursts::3            20447                       # Per bank write bursts
system.mem_ctrls2.perBankWrBursts::4            20041                       # Per bank write bursts
system.mem_ctrls2.perBankWrBursts::5            20343                       # Per bank write bursts
system.mem_ctrls2.perBankWrBursts::6            20353                       # Per bank write bursts
system.mem_ctrls2.perBankWrBursts::7            20281                       # Per bank write bursts
system.mem_ctrls2.perBankWrBursts::8            20415                       # Per bank write bursts
system.mem_ctrls2.perBankWrBursts::9            20208                       # Per bank write bursts
system.mem_ctrls2.perBankWrBursts::10           20096                       # Per bank write bursts
system.mem_ctrls2.perBankWrBursts::11           20143                       # Per bank write bursts
system.mem_ctrls2.perBankWrBursts::12           19945                       # Per bank write bursts
system.mem_ctrls2.perBankWrBursts::13           20178                       # Per bank write bursts
system.mem_ctrls2.perBankWrBursts::14           20157                       # Per bank write bursts
system.mem_ctrls2.perBankWrBursts::15           20140                       # Per bank write bursts
system.mem_ctrls2.numRdRetry                      232                       # Number of times read queue was full causing retry
system.mem_ctrls2.numWrRetry                     5738                       # Number of times write queue was full causing retry
system.mem_ctrls2.totGap                 154397064500                       # Total gap between requests
system.mem_ctrls2.readPktSize::0                    0                       # Read request sizes (log2)
system.mem_ctrls2.readPktSize::1                    0                       # Read request sizes (log2)
system.mem_ctrls2.readPktSize::2                    0                       # Read request sizes (log2)
system.mem_ctrls2.readPktSize::3                    0                       # Read request sizes (log2)
system.mem_ctrls2.readPktSize::4                    0                       # Read request sizes (log2)
system.mem_ctrls2.readPktSize::5                    0                       # Read request sizes (log2)
system.mem_ctrls2.readPktSize::6               382991                       # Read request sizes (log2)
system.mem_ctrls2.writePktSize::0                   0                       # Write request sizes (log2)
system.mem_ctrls2.writePktSize::1                   0                       # Write request sizes (log2)
system.mem_ctrls2.writePktSize::2                   0                       # Write request sizes (log2)
system.mem_ctrls2.writePktSize::3                   0                       # Write request sizes (log2)
system.mem_ctrls2.writePktSize::4                   0                       # Write request sizes (log2)
system.mem_ctrls2.writePktSize::5                   0                       # Write request sizes (log2)
system.mem_ctrls2.writePktSize::6              323257                       # Write request sizes (log2)
system.mem_ctrls2.rdQLenPdf::0                 204837                       # What read queue length does an incoming req see
system.mem_ctrls2.rdQLenPdf::1                  10371                       # What read queue length does an incoming req see
system.mem_ctrls2.rdQLenPdf::2                  13174                       # What read queue length does an incoming req see
system.mem_ctrls2.rdQLenPdf::3                  15330                       # What read queue length does an incoming req see
system.mem_ctrls2.rdQLenPdf::4                  16692                       # What read queue length does an incoming req see
system.mem_ctrls2.rdQLenPdf::5                  16392                       # What read queue length does an incoming req see
system.mem_ctrls2.rdQLenPdf::6                  14607                       # What read queue length does an incoming req see
system.mem_ctrls2.rdQLenPdf::7                  12811                       # What read queue length does an incoming req see
system.mem_ctrls2.rdQLenPdf::8                  11112                       # What read queue length does an incoming req see
system.mem_ctrls2.rdQLenPdf::9                   9796                       # What read queue length does an incoming req see
system.mem_ctrls2.rdQLenPdf::10                  8402                       # What read queue length does an incoming req see
system.mem_ctrls2.rdQLenPdf::11                  7187                       # What read queue length does an incoming req see
system.mem_ctrls2.rdQLenPdf::12                  6266                       # What read queue length does an incoming req see
system.mem_ctrls2.rdQLenPdf::13                  5416                       # What read queue length does an incoming req see
system.mem_ctrls2.rdQLenPdf::14                  4740                       # What read queue length does an incoming req see
system.mem_ctrls2.rdQLenPdf::15                  4173                       # What read queue length does an incoming req see
system.mem_ctrls2.rdQLenPdf::16                  3657                       # What read queue length does an incoming req see
system.mem_ctrls2.rdQLenPdf::17                  3123                       # What read queue length does an incoming req see
system.mem_ctrls2.rdQLenPdf::18                  2636                       # What read queue length does an incoming req see
system.mem_ctrls2.rdQLenPdf::19                  2259                       # What read queue length does an incoming req see
system.mem_ctrls2.rdQLenPdf::20                  1888                       # What read queue length does an incoming req see
system.mem_ctrls2.rdQLenPdf::21                  1609                       # What read queue length does an incoming req see
system.mem_ctrls2.rdQLenPdf::22                  1361                       # What read queue length does an incoming req see
system.mem_ctrls2.rdQLenPdf::23                  1106                       # What read queue length does an incoming req see
system.mem_ctrls2.rdQLenPdf::24                   932                       # What read queue length does an incoming req see
system.mem_ctrls2.rdQLenPdf::25                   721                       # What read queue length does an incoming req see
system.mem_ctrls2.rdQLenPdf::26                   609                       # What read queue length does an incoming req see
system.mem_ctrls2.rdQLenPdf::27                   515                       # What read queue length does an incoming req see
system.mem_ctrls2.rdQLenPdf::28                   375                       # What read queue length does an incoming req see
system.mem_ctrls2.rdQLenPdf::29                   284                       # What read queue length does an incoming req see
system.mem_ctrls2.rdQLenPdf::30                   222                       # What read queue length does an incoming req see
system.mem_ctrls2.rdQLenPdf::31                   370                       # What read queue length does an incoming req see
system.mem_ctrls2.wrQLenPdf::0                  51456                       # What write queue length does an incoming req see
system.mem_ctrls2.wrQLenPdf::1                  57889                       # What write queue length does an incoming req see
system.mem_ctrls2.wrQLenPdf::2                  59854                       # What write queue length does an incoming req see
system.mem_ctrls2.wrQLenPdf::3                  60281                       # What write queue length does an incoming req see
system.mem_ctrls2.wrQLenPdf::4                  59358                       # What write queue length does an incoming req see
system.mem_ctrls2.wrQLenPdf::5                  12773                       # What write queue length does an incoming req see
system.mem_ctrls2.wrQLenPdf::6                  10557                       # What write queue length does an incoming req see
system.mem_ctrls2.wrQLenPdf::7                  11089                       # What write queue length does an incoming req see
system.mem_ctrls2.bytesPerActivate::samples       187061                       # Bytes accessed per row activation
system.mem_ctrls2.bytesPerActivate::mean   241.620434                       # Bytes accessed per row activation
system.mem_ctrls2.bytesPerActivate::gmean   187.763768                       # Bytes accessed per row activation
system.mem_ctrls2.bytesPerActivate::stdev   185.390075                       # Bytes accessed per row activation
system.mem_ctrls2.bytesPerActivate::0-127        39961     21.36%     21.36% # Bytes accessed per row activation
system.mem_ctrls2.bytesPerActivate::128-255        58334     31.18%     52.55% # Bytes accessed per row activation
system.mem_ctrls2.bytesPerActivate::256-383        67599     36.14%     88.68% # Bytes accessed per row activation
system.mem_ctrls2.bytesPerActivate::384-511         7425      3.97%     92.65% # Bytes accessed per row activation
system.mem_ctrls2.bytesPerActivate::512-639         4628      2.47%     95.13% # Bytes accessed per row activation
system.mem_ctrls2.bytesPerActivate::640-767         2451      1.31%     96.44% # Bytes accessed per row activation
system.mem_ctrls2.bytesPerActivate::768-895         1760      0.94%     97.38% # Bytes accessed per row activation
system.mem_ctrls2.bytesPerActivate::896-1023         1251      0.67%     98.05% # Bytes accessed per row activation
system.mem_ctrls2.bytesPerActivate::1024-1151         3652      1.95%    100.00% # Bytes accessed per row activation
system.mem_ctrls2.bytesPerActivate::total       187061                       # Bytes accessed per row activation
system.mem_ctrls2.rdPerTurnAround::samples        52752                       # Reads before turning the bus around for writes
system.mem_ctrls2.rdPerTurnAround::mean      7.259857                       # Reads before turning the bus around for writes
system.mem_ctrls2.rdPerTurnAround::stdev    14.703972                       # Reads before turning the bus around for writes
system.mem_ctrls2.rdPerTurnAround::0-127        52746     99.99%     99.99% # Reads before turning the bus around for writes
system.mem_ctrls2.rdPerTurnAround::128-255            4      0.01%    100.00% # Reads before turning the bus around for writes
system.mem_ctrls2.rdPerTurnAround::1152-1279            1      0.00%    100.00% # Reads before turning the bus around for writes
system.mem_ctrls2.rdPerTurnAround::2816-2943            1      0.00%    100.00% # Reads before turning the bus around for writes
system.mem_ctrls2.rdPerTurnAround::total        52752                       # Reads before turning the bus around for writes
system.mem_ctrls2.wrPerTurnAround::samples        52752                       # Writes before turning the bus around for reads
system.mem_ctrls2.wrPerTurnAround::mean      6.127862                       # Writes before turning the bus around for reads
system.mem_ctrls2.wrPerTurnAround::gmean     5.780530                       # Writes before turning the bus around for reads
system.mem_ctrls2.wrPerTurnAround::stdev     2.598066                       # Writes before turning the bus around for reads
system.mem_ctrls2.wrPerTurnAround::4-7          44192     83.77%     83.77% # Writes before turning the bus around for reads
system.mem_ctrls2.wrPerTurnAround::8-11          5109      9.68%     93.46% # Writes before turning the bus around for reads
system.mem_ctrls2.wrPerTurnAround::12-15         1891      3.58%     97.04% # Writes before turning the bus around for reads
system.mem_ctrls2.wrPerTurnAround::16-19         1560      2.96%    100.00% # Writes before turning the bus around for reads
system.mem_ctrls2.wrPerTurnAround::total        52752                       # Writes before turning the bus around for reads
system.mem_ctrls2.totQLat                 23313471724                       # Total ticks spent queuing
system.mem_ctrls2.totMemAccLat            30494215474                       # Total ticks spent from burst creation until serviced by the DRAM
system.mem_ctrls2.totBusLat                1914865000                       # Total ticks spent in databus transfers
system.mem_ctrls2.avgQLat                    60874.97                       # Average queueing delay per DRAM burst
system.mem_ctrls2.avgBusLat                   5000.00                       # Average bus latency per DRAM burst
system.mem_ctrls2.avgMemAccLat               79624.97                       # Average memory access latency per DRAM burst
system.mem_ctrls2.avgRdBW                      158.75                       # Average DRAM read bandwidth in MiByte/s
system.mem_ctrls2.avgWrBW                      133.99                       # Average achieved write bandwidth in MiByte/s
system.mem_ctrls2.avgRdBWSys                   158.75                       # Average system read bandwidth in MiByte/s
system.mem_ctrls2.avgWrBWSys                   133.99                       # Average system write bandwidth in MiByte/s
system.mem_ctrls2.peakBW                     12800.00                       # Theoretical peak bandwidth in MiByte/s
system.mem_ctrls2.busUtil                        2.29                       # Data bus utilization in percentage
system.mem_ctrls2.busUtilRead                    1.24                       # Data bus utilization in percentage for reads
system.mem_ctrls2.busUtilWrite                   1.05                       # Data bus utilization in percentage for writes
system.mem_ctrls2.avgRdQLen                      1.16                       # Average read queue length when enqueuing
system.mem_ctrls2.avgWrQLen                      2.99                       # Average write queue length when enqueuing
system.mem_ctrls2.readRowHits                  288573                       # Number of row buffer hits during reads
system.mem_ctrls2.writeRowHits                 230585                       # Number of row buffer hits during writes
system.mem_ctrls2.readRowHitRate                75.35                       # Row buffer hit rate for reads
system.mem_ctrls2.writeRowHitRate               71.33                       # Row buffer hit rate for writes
system.mem_ctrls2.avgGap                    218615.93                       # Average gap between requests
system.mem_ctrls2.pageHitRate                   73.51                       # Row buffer hit rate, read and write combined
system.mem_ctrls2.memoryStateTime::IDLE   27138611750                       # Time in different power states
system.mem_ctrls2.memoryStateTime::REF     5155540000                       # Time in different power states
system.mem_ctrls2.memoryStateTime::PRE_PDN            0                       # Time in different power states
system.mem_ctrls2.memoryStateTime::ACT   122099673250                       # Time in different power states
system.mem_ctrls2.memoryStateTime::ACT_PDN            0                       # Time in different power states
system.mem_ctrls2.actEnergy::0              713021400                       # Energy for activate commands per rank (pJ)
system.mem_ctrls2.actEnergy::1              701099280                       # Energy for activate commands per rank (pJ)
system.mem_ctrls2.preEnergy::0              389049375                       # Energy for precharge commands per rank (pJ)
system.mem_ctrls2.preEnergy::1              382544250                       # Energy for precharge commands per rank (pJ)
system.mem_ctrls2.readEnergy::0            1501102200                       # Energy for read commands per rank (pJ)
system.mem_ctrls2.readEnergy::1            1485978000                       # Energy for read commands per rank (pJ)
system.mem_ctrls2.writeEnergy::0           1049565600                       # Energy for write commands per rank (pJ)
system.mem_ctrls2.writeEnergy::1           1045042560                       # Energy for write commands per rank (pJ)
system.mem_ctrls2.refreshEnergy::0        10084236240                       # Energy for refresh commands per rank (pJ)
system.mem_ctrls2.refreshEnergy::1        10084236240                       # Energy for refresh commands per rank (pJ)
system.mem_ctrls2.actBackEnergy::0        60055553970                       # Energy for active background per rank (pJ)
system.mem_ctrls2.actBackEnergy::1        59591166705                       # Energy for active background per rank (pJ)
system.mem_ctrls2.preBackEnergy::0        39955976250                       # Energy for precharge background per rank (pJ)
system.mem_ctrls2.preBackEnergy::1        40363333500                       # Energy for precharge background per rank (pJ)
system.mem_ctrls2.totalEnergy::0         113748505035                       # Total energy per rank (pJ)
system.mem_ctrls2.totalEnergy::1         113653400535                       # Total energy per rank (pJ)
system.mem_ctrls2.averagePower::0          736.742646                       # Core power per rank (mW)
system.mem_ctrls2.averagePower::1          736.126660                       # Core power per rank (mW)
system.mem_ctrls3.bytes_read::ruby.dir_cntrl3     24491456                       # Number of bytes read from this memory
system.mem_ctrls3.bytes_read::total          24491456                       # Number of bytes read from this memory
system.mem_ctrls3.bytes_written::ruby.dir_cntrl3     20686080                       # Number of bytes written to this memory
system.mem_ctrls3.bytes_written::total       20686080                       # Number of bytes written to this memory
system.mem_ctrls3.num_reads::ruby.dir_cntrl3       382679                       # Number of read requests responded to by this memory
system.mem_ctrls3.num_reads::total             382679                       # Number of read requests responded to by this memory
system.mem_ctrls3.num_writes::ruby.dir_cntrl3       323220                       # Number of write requests responded to by this memory
system.mem_ctrls3.num_writes::total            323220                       # Number of write requests responded to by this memory
system.mem_ctrls3.bw_read::ruby.dir_cntrl3    158625613                       # Total read bandwidth from this memory (bytes/s)
system.mem_ctrls3.bw_read::total            158625613                       # Total read bandwidth from this memory (bytes/s)
system.mem_ctrls3.bw_write::ruby.dir_cntrl3    133979054                       # Write bandwidth from this memory (bytes/s)
system.mem_ctrls3.bw_write::total           133979054                       # Write bandwidth from this memory (bytes/s)
system.mem_ctrls3.bw_total::ruby.dir_cntrl3    292604667                       # Total bandwidth to/from this memory (bytes/s)
system.mem_ctrls3.bw_total::total           292604667                       # Total bandwidth to/from this memory (bytes/s)
system.mem_ctrls3.readReqs                     382679                       # Number of read requests accepted
system.mem_ctrls3.writeReqs                    323220                       # Number of write requests accepted
system.mem_ctrls3.readBursts                   382679                       # Number of DRAM read bursts, including those serviced by the write queue
system.mem_ctrls3.writeBursts                  323220                       # Number of DRAM write bursts, including those merged in the write queue
system.mem_ctrls3.bytesReadDRAM              24490816                       # Total number of bytes read from DRAM
system.mem_ctrls3.bytesReadWrQ                    640                       # Total number of bytes read from write queue
system.mem_ctrls3.bytesWritten               20685952                       # Total number of bytes written to DRAM
system.mem_ctrls3.bytesReadSys               24491456                       # Total read bytes from the system interface side
system.mem_ctrls3.bytesWrittenSys            20686080                       # Total written bytes from the system interface side
system.mem_ctrls3.servicedByWrQ                    10                       # Number of DRAM read bursts serviced by the write queue
system.mem_ctrls3.mergedWrBursts                    0                       # Number of DRAM write bursts merged with an existing one
system.mem_ctrls3.neitherReadNorWriteReqs            0                       # Number of requests that are neither read nor write
system.mem_ctrls3.perBankRdBursts::0            23630                       # Per bank write bursts
system.mem_ctrls3.perBankRdBursts::1            24302                       # Per bank write bursts
system.mem_ctrls3.perBankRdBursts::2            23817                       # Per bank write bursts
system.mem_ctrls3.perBankRdBursts::3            24238                       # Per bank write bursts
system.mem_ctrls3.perBankRdBursts::4            23816                       # Per bank write bursts
system.mem_ctrls3.perBankRdBursts::5            24167                       # Per bank write bursts
system.mem_ctrls3.perBankRdBursts::6            24228                       # Per bank write bursts
system.mem_ctrls3.perBankRdBursts::7            24039                       # Per bank write bursts
system.mem_ctrls3.perBankRdBursts::8            23889                       # Per bank write bursts
system.mem_ctrls3.perBankRdBursts::9            24026                       # Per bank write bursts
system.mem_ctrls3.perBankRdBursts::10           23881                       # Per bank write bursts
system.mem_ctrls3.perBankRdBursts::11           24276                       # Per bank write bursts
system.mem_ctrls3.perBankRdBursts::12           23558                       # Per bank write bursts
system.mem_ctrls3.perBankRdBursts::13           23446                       # Per bank write bursts
system.mem_ctrls3.perBankRdBursts::14           23607                       # Per bank write bursts
system.mem_ctrls3.perBankRdBursts::15           23749                       # Per bank write bursts
system.mem_ctrls3.perBankWrBursts::0            20220                       # Per bank write bursts
system.mem_ctrls3.perBankWrBursts::1            20123                       # Per bank write bursts
system.mem_ctrls3.perBankWrBursts::2            20165                       # Per bank write bursts
system.mem_ctrls3.perBankWrBursts::3            20435                       # Per bank write bursts
system.mem_ctrls3.perBankWrBursts::4            20034                       # Per bank write bursts
system.mem_ctrls3.perBankWrBursts::5            20344                       # Per bank write bursts
system.mem_ctrls3.perBankWrBursts::6            20353                       # Per bank write bursts
system.mem_ctrls3.perBankWrBursts::7            20270                       # Per bank write bursts
system.mem_ctrls3.perBankWrBursts::8            20411                       # Per bank write bursts
system.mem_ctrls3.perBankWrBursts::9            20208                       # Per bank write bursts
system.mem_ctrls3.perBankWrBursts::10           20096                       # Per bank write bursts
system.mem_ctrls3.perBankWrBursts::11           20153                       # Per bank write bursts
system.mem_ctrls3.perBankWrBursts::12           19945                       # Per bank write bursts
system.mem_ctrls3.perBankWrBursts::13           20184                       # Per bank write bursts
system.mem_ctrls3.perBankWrBursts::14           20157                       # Per bank write bursts
system.mem_ctrls3.perBankWrBursts::15           20120                       # Per bank write bursts
system.mem_ctrls3.numRdRetry                      290                       # Number of times read queue was full causing retry
system.mem_ctrls3.numWrRetry                     6041                       # Number of times write queue was full causing retry
system.mem_ctrls3.totGap                 154396742500                       # Total gap between requests
system.mem_ctrls3.readPktSize::0                    0                       # Read request sizes (log2)
system.mem_ctrls3.readPktSize::1                    0                       # Read request sizes (log2)
system.mem_ctrls3.readPktSize::2                    0                       # Read request sizes (log2)
system.mem_ctrls3.readPktSize::3                    0                       # Read request sizes (log2)
system.mem_ctrls3.readPktSize::4                    0                       # Read request sizes (log2)
system.mem_ctrls3.readPktSize::5                    0                       # Read request sizes (log2)
system.mem_ctrls3.readPktSize::6               382679                       # Read request sizes (log2)
system.mem_ctrls3.writePktSize::0                   0                       # Write request sizes (log2)
system.mem_ctrls3.writePktSize::1                   0                       # Write request sizes (log2)
system.mem_ctrls3.writePktSize::2                   0                       # Write request sizes (log2)
system.mem_ctrls3.writePktSize::3                   0                       # Write request sizes (log2)
system.mem_ctrls3.writePktSize::4                   0                       # Write request sizes (log2)
system.mem_ctrls3.writePktSize::5                   0                       # Write request sizes (log2)
system.mem_ctrls3.writePktSize::6              323220                       # Write request sizes (log2)
system.mem_ctrls3.rdQLenPdf::0                 204388                       # What read queue length does an incoming req see
system.mem_ctrls3.rdQLenPdf::1                  10419                       # What read queue length does an incoming req see
system.mem_ctrls3.rdQLenPdf::2                  12762                       # What read queue length does an incoming req see
system.mem_ctrls3.rdQLenPdf::3                  15147                       # What read queue length does an incoming req see
system.mem_ctrls3.rdQLenPdf::4                  16377                       # What read queue length does an incoming req see
system.mem_ctrls3.rdQLenPdf::5                  16328                       # What read queue length does an incoming req see
system.mem_ctrls3.rdQLenPdf::6                  15063                       # What read queue length does an incoming req see
system.mem_ctrls3.rdQLenPdf::7                  13201                       # What read queue length does an incoming req see
system.mem_ctrls3.rdQLenPdf::8                  11328                       # What read queue length does an incoming req see
system.mem_ctrls3.rdQLenPdf::9                   9870                       # What read queue length does an incoming req see
system.mem_ctrls3.rdQLenPdf::10                  8414                       # What read queue length does an incoming req see
system.mem_ctrls3.rdQLenPdf::11                  7399                       # What read queue length does an incoming req see
system.mem_ctrls3.rdQLenPdf::12                  6354                       # What read queue length does an incoming req see
system.mem_ctrls3.rdQLenPdf::13                  5404                       # What read queue length does an incoming req see
system.mem_ctrls3.rdQLenPdf::14                  4774                       # What read queue length does an incoming req see
system.mem_ctrls3.rdQLenPdf::15                  4036                       # What read queue length does an incoming req see
system.mem_ctrls3.rdQLenPdf::16                  3508                       # What read queue length does an incoming req see
system.mem_ctrls3.rdQLenPdf::17                  3000                       # What read queue length does an incoming req see
system.mem_ctrls3.rdQLenPdf::18                  2578                       # What read queue length does an incoming req see
system.mem_ctrls3.rdQLenPdf::19                  2216                       # What read queue length does an incoming req see
system.mem_ctrls3.rdQLenPdf::20                  1887                       # What read queue length does an incoming req see
system.mem_ctrls3.rdQLenPdf::21                  1567                       # What read queue length does an incoming req see
system.mem_ctrls3.rdQLenPdf::22                  1325                       # What read queue length does an incoming req see
system.mem_ctrls3.rdQLenPdf::23                  1111                       # What read queue length does an incoming req see
system.mem_ctrls3.rdQLenPdf::24                   942                       # What read queue length does an incoming req see
[...]
system.ruby.L2Cache_Controller.S_I.Ack_all::total           14                      
system.ruby.L2Cache_Controller.ISS.Mem_Data |       18665      7.92%      7.92% |        7080      3.00%     10.92% |        7087      3.01%     13.93% |        7033      2.98%     16.91% |        7001      2.97%     19.88% |        6984      2.96%     22.85% |        6996      2.97%     25.81% |        6991      2.97%     28.78% |        7030      2.98%     31.76% |        7031      2.98%     34.75% |        7064      3.00%     37.74% |        6989      2.97%     40.71% |        6992      2.97%     43.67% |        6993      2.97%     46.64% |        6995      2.97%     49.61% |        6959      2.95%     52.56% |        6998      2.97%     55.53% |        6973      2.96%     58.49% |        7006      2.97%     61.46% |        6985      2.96%     64.42% |        6983      2.96%     67.39% |        6968      2.96%     70.34% |        6992      2.97%     73.31% |        6984      2.96%     76.27% |        7004      2.97%     79.24% |        7007      2.97%     82.22% |        6984      2.96%     85.18% |        6962      2.95%     88.13% |        7005      2.97%     91.11% |        6984      2.96%     94.07% |        6958      2.95%     97.02% |        7024      2.98%    100.00%
system.ruby.L2Cache_Controller.ISS.Mem_Data::total       235707                      
system.ruby.L2Cache_Controller.IS.Mem_Data |         544      3.26%      3.26% |         472      2.82%      6.08% |         467      2.79%      8.87% |         466      2.79%     11.66% |         512      3.06%     14.73% |         468      2.80%     17.53% |         506      3.03%     20.56% |         531      3.18%     23.73% |         549      3.29%     27.02% |         491      2.94%     29.96% |         536      3.21%     33.16% |         568      3.40%     36.56% |         623      3.73%     40.29% |         566      3.39%     43.68% |         583      3.49%     47.17% |         525      3.14%     50.31% |         536      3.21%     53.52% |         574      3.43%     56.95% |         567      3.39%     60.34% |         514      3.08%     63.42% |         508      3.04%     66.46% |         524      3.14%     69.59% |         484      2.90%     72.49% |         471      2.82%     75.31% |         548      3.28%     78.59% |         595      3.56%     82.15% |         535      3.20%     85.35% |         482      2.88%     88.24% |         493      2.95%     91.19% |         512      3.06%     94.25% |         492      2.94%     97.19% |         469      2.81%    100.00%
system.ruby.L2Cache_Controller.IS.Mem_Data::total        16711                      
system.ruby.L2Cache_Controller.IM.L1_GETX |           1    100.00%    100.00% |           0      0.00%    100.00% |           0      0.00%    100.00% |           0      0.00%    100.00% |           0      0.00%    100.00% |           0      0.00%    100.00% |           0      0.00%    100.00% |           0      0.00%    100.00% |           0      0.00%    100.00% |           0      0.00%    100.00% |           0      0.00%    100.00% |           0      0.00%    100.00% |           0      0.00%    100.00% |           0      0.00%    100.00% |           0      0.00%    100.00% |           0      0.00%    100.00% |           0      0.00%    100.00% |           0      0.00%    100.00% |           0      0.00%    100.00% |           0      0.00%    100.00% |           0      0.00%    100.00% |           0      0.00%    100.00% |           0      0.00%    100.00% |           0      0.00%    100.00% |           0      0.00%    100.00% |           0      0.00%    100.00% |           0      0.00%    100.00% |           0      0.00%    100.00% |           0      0.00%    100.00% |           0      0.00%    100.00% |           0      0.00%    100.00% |           0      0.00%    100.00%
system.ruby.L2Cache_Controller.IM.L1_GETX::total            1                      
system.ruby.L2Cache_Controller.IM.Mem_Data |       40392      3.13%      3.13% |       40330      3.12%      6.25% |       40342      3.12%      9.38% |       40347      3.13%     12.50% |       40353      3.13%     15.63% |       40364      3.13%     18.75% |       40339      3.12%     21.88% |       40336      3.12%     25.00% |       40350      3.13%     28.13% |       40344      3.12%     31.25% |       40329      3.12%     34.38% |       40358      3.13%     37.50% |       40339      3.12%     40.63% |       40338      3.12%     43.75% |       40341      3.12%     46.88% |       40330      3.12%     50.00% |       40352      3.13%     53.13% |       40352      3.13%     56.25% |       40349      3.13%     59.38% |       40345      3.13%     62.50% |       40340      3.12%     65.63% |       40354      3.13%     68.75% |       40339      3.12%     71.88% |       40341      3.12%     75.00% |       40347      3.13%     78.13% |       40345      3.13%     81.25% |       40349      3.13%     84.38% |       40337      3.12%     87.50% |       40336      3.12%     90.63% |       40338      3.12%     93.75% |       40351      3.13%     96.88% |       40332      3.12%    100.00%
system.ruby.L2Cache_Controller.IM.Mem_Data::total      1291039                      
system.ruby.L2Cache_Controller.SS_MB.Exclusive_Unblock |           4      8.89%      8.89% |           6     13.33%     22.22% |           2      4.44%     26.67% |           6     13.33%     40.00% |           1      2.22%     42.22% |           0      0.00%     42.22% |           1      2.22%     44.44% |           0      0.00%     44.44% |           0      0.00%     44.44% |           1      2.22%     46.67% |           1      2.22%     48.89% |           0      0.00%     48.89% |           4      8.89%     57.78% |           0      0.00%     57.78% |           3      6.67%     64.44% |           0      0.00%     64.44% |           0      0.00%     64.44% |           0      0.00%     64.44% |           9     20.00%     84.44% |           0      0.00%     84.44% |           0      0.00%     84.44% |           0      0.00%     84.44% |           0      0.00%     84.44% |           0      0.00%     84.44% |           1      2.22%     86.67% |           2      4.44%     91.11% |           1      2.22%     93.33% |           1      2.22%     95.56% |           0      0.00%     95.56% |           1      2.22%     97.78% |           1      2.22%    100.00% |           0      0.00%    100.00%
system.ruby.L2Cache_Controller.SS_MB.Exclusive_Unblock::total           45                      
system.ruby.L2Cache_Controller.MT_MB.L1_GETS |           1    100.00%    100.00% |           0      0.00%    100.00% |           0      0.00%    100.00% |           0      0.00%    100.00% |           0      0.00%    100.00% |           0      0.00%    100.00% |           0      0.00%    100.00% |           0      0.00%    100.00% |           0      0.00%    100.00% |           0      0.00%    100.00% |           0      0.00%    100.00% |           0      0.00%    100.00% |           0      0.00%    100.00% |           0      0.00%    100.00% |           0      0.00%    100.00% |           0      0.00%    100.00% |           0      0.00%    100.00% |           0      0.00%    100.00% |           0      0.00%    100.00% |           0      0.00%    100.00% |           0      0.00%    100.00% |           0      0.00%    100.00% |           0      0.00%    100.00% |           0      0.00%    100.00% |           0      0.00%    100.00% |           0      0.00%    100.00% |           0      0.00%    100.00% |           0      0.00%    100.00% |           0      0.00%    100.00% |           0      0.00%    100.00% |           0      0.00%    100.00% |           0      0.00%    100.00%
system.ruby.L2Cache_Controller.MT_MB.L1_GETS::total            1                      
system.ruby.L2Cache_Controller.MT_MB.L1_PUTX |           2    100.00%    100.00% |           0      0.00%    100.00% |           0      0.00%    100.00% |           0      0.00%    100.00% |           0      0.00%    100.00% |           0      0.00%    100.00% |           0      0.00%    100.00% |           0      0.00%    100.00% |           0      0.00%    100.00% |           0      0.00%    100.00% |           0      0.00%    100.00% |           0      0.00%    100.00% |           0      0.00%    100.00% |           0      0.00%    100.00% |           0      0.00%    100.00% |           0      0.00%    100.00% |           0      0.00%    100.00% |           0      0.00%    100.00% |           0      0.00%    100.00% |           0      0.00%    100.00% |           0      0.00%    100.00% |           0      0.00%    100.00% |           0      0.00%    100.00% |           0      0.00%    100.00% |           0      0.00%    100.00% |           0      0.00%    100.00% |           0      0.00%    100.00% |           0      0.00%    100.00% |           0      0.00%    100.00% |           0      0.00%    100.00% |           0      0.00%    100.00% |           0      0.00%    100.00%
system.ruby.L2Cache_Controller.MT_MB.L1_PUTX::total            2                      
system.ruby.L2Cache_Controller.MT_MB.Exclusive_Unblock |      173181      8.49%      8.49% |       64258      3.15%     11.64% |       58754      2.88%     14.51% |       58459      2.86%     17.38% |       57799      2.83%     20.21% |       56502      2.77%     22.98% |       55006      2.70%     25.68% |       55299      2.71%     28.39% |       58649      2.87%     31.26% |       57718      2.83%     34.09% |       60645      2.97%     37.06% |       60210      2.95%     40.01% |       56858      2.79%     42.80% |       56794      2.78%     45.58% |       56448      2.77%     48.35% |       56867      2.79%     51.13% |       59213      2.90%     54.03% |       58514      2.87%     56.90% |       59885      2.93%     59.84% |       60878      2.98%     62.82% |       60909      2.98%     65.80% |       63096      3.09%     68.90% |       64326      3.15%     72.05% |       60549      2.97%     75.01% |       60925      2.99%     78.00% |       62471      3.06%     81.06% |       60797      2.98%     84.04% |       61417      3.01%     87.05% |       64091      3.14%     90.19% |       61913      3.03%     93.22% |       70026      3.43%     96.66% |       68240      3.34%    100.00%
system.ruby.L2Cache_Controller.MT_MB.Exclusive_Unblock::total      2040697                      
system.ruby.L2Cache_Controller.MT_IIB.WB_Data |           0      0.00%      0.00% |           0      0.00%      0.00% |           0      0.00%      0.00% |           0      0.00%      0.00% |           0      0.00%      0.00% |           1     50.00%     50.00% |           0      0.00%     50.00% |           0      0.00%     50.00% |           0      0.00%     50.00% |           0      0.00%     50.00% |           0      0.00%     50.00% |           0      0.00%     50.00% |           0      0.00%     50.00% |           0      0.00%     50.00% |           0      0.00%     50.00% |           0      0.00%     50.00% |           0      0.00%     50.00% |           0      0.00%     50.00% |           0      0.00%     50.00% |           0      0.00%     50.00% |           0      0.00%     50.00% |           0      0.00%     50.00% |           0      0.00%     50.00% |           0      0.00%     50.00% |           0      0.00%     50.00% |           0      0.00%     50.00% |           0      0.00%     50.00% |           0      0.00%     50.00% |           1     50.00%    100.00% |           0      0.00%    100.00% |           0      0.00%    100.00% |           0      0.00%    100.00%
system.ruby.L2Cache_Controller.MT_IIB.WB_Data::total            2                      
system.ruby.L2Cache_Controller.MT_IIB.WB_Data_clean |          33    100.00%    100.00% |           0      0.00%    100.00% |           0      0.00%    100.00% |           0      0.00%    100.00% |           0      0.00%    100.00% |           0      0.00%    100.00% |           0      0.00%    100.00% |           0      0.00%    100.00% |           0      0.00%    100.00% |           0      0.00%    100.00% |           0      0.00%    100.00% |           0      0.00%    100.00% |           0      0.00%    100.00% |           0      0.00%    100.00% |           0      0.00%    100.00% |           0      0.00%    100.00% |           0      0.00%    100.00% |           0      0.00%    100.00% |           0      0.00%    100.00% |           0      0.00%    100.00% |           0      0.00%    100.00% |           0      0.00%    100.00% |           0      0.00%    100.00% |           0      0.00%    100.00% |           0      0.00%    100.00% |           0      0.00%    100.00% |           0      0.00%    100.00% |           0      0.00%    100.00% |           0      0.00%    100.00% |           0      0.00%    100.00% |           0      0.00%    100.00% |           0      0.00%    100.00%
system.ruby.L2Cache_Controller.MT_IIB.WB_Data_clean::total           33                      
system.ruby.L2Cache_Controller.MT_SB.Unblock |          33     94.29%     94.29% |           0      0.00%     94.29% |           0      0.00%     94.29% |           0      0.00%     94.29% |           0      0.00%     94.29% |           1      2.86%     97.14% |           0      0.00%     97.14% |           0      0.00%     97.14% |           0      0.00%     97.14% |           0      0.00%     97.14% |           0      0.00%     97.14% |           0      0.00%     97.14% |           0      0.00%     97.14% |           0      0.00%     97.14% |           0      0.00%     97.14% |           0      0.00%     97.14% |           0      0.00%     97.14% |           0      0.00%     97.14% |           0      0.00%     97.14% |           0      0.00%     97.14% |           0      0.00%     97.14% |           0      0.00%     97.14% |           0      0.00%     97.14% |           0      0.00%     97.14% |           0      0.00%     97.14% |           0      0.00%     97.14% |           0      0.00%     97.14% |           0      0.00%     97.14% |           1      2.86%    100.00% |           0      0.00%    100.00% |           0      0.00%    100.00% |           0      0.00%    100.00%
system.ruby.L2Cache_Controller.MT_SB.Unblock::total           35                      
system.ruby.SimicsNetworkPortInterface_Controller.MessageSend |      118804     21.32%     21.32% |      278643     50.00%     71.32% |       39178      7.03%     78.35% |       41006      7.36%     85.71% |       38502      6.91%     92.62% |       41153      7.38%    100.00% |           0      0.00%    100.00% |           0      0.00%    100.00% |           0      0.00%    100.00% |           0      0.00%    100.00% |           0      0.00%    100.00% |           0      0.00%    100.00% |           0      0.00%    100.00% |           0      0.00%    100.00% |           0      0.00%    100.00% |           0      0.00%    100.00% |           0      0.00%    100.00% |           0      0.00%    100.00% |           0      0.00%    100.00% |           0      0.00%    100.00% |           0      0.00%    100.00% |           0      0.00%    100.00% |           0      0.00%    100.00% |           0      0.00%    100.00% |           0      0.00%    100.00% |           0      0.00%    100.00% |           0      0.00%    100.00% |           0      0.00%    100.00% |           0      0.00%    100.00% |           0      0.00%    100.00% |           0      0.00%    100.00% |           0      0.00%    100.00%
system.ruby.SimicsNetworkPortInterface_Controller.MessageSend::total       557286                      
system.ruby.SimicsNetworkPortInterface_Controller.MessageRecv |      118804     21.32%     21.32% |      278643     50.00%     71.32% |       39178      7.03%     78.35% |       41006      7.36%     85.71% |       38502      6.91%     92.62% |       41153      7.38%    100.00% |           0      0.00%    100.00% |           0      0.00%    100.00% |           0      0.00%    100.00% |           0      0.00%    100.00% |           0      0.00%    100.00% |           0      0.00%    100.00% |           0      0.00%    100.00% |           0      0.00%    100.00% |           0      0.00%    100.00% |           0      0.00%    100.00% |           0      0.00%    100.00% |           0      0.00%    100.00% |           0      0.00%    100.00% |           0      0.00%    100.00% |           0      0.00%    100.00% |           0      0.00%    100.00% |           0      0.00%    100.00% |           0      0.00%    100.00% |           0      0.00%    100.00% |           0      0.00%    100.00% |           0      0.00%    100.00% |           0      0.00%    100.00% |           0      0.00%    100.00% |           0      0.00%    100.00% |           0      0.00%    100.00% |           0      0.00%    100.00%
system.ruby.SimicsNetworkPortInterface_Controller.MessageRecv::total       557286                      
system.ruby.SimicsNetworkPortInterface_Controller.A.MessageSend |      118804     21.32%     21.32% |      278643     50.00%     71.32% |       39178      7.03%     78.35% |       41006      7.36%     85.71% |       38502      6.91%     92.62% |       41153      7.38%    100.00% |           0      0.00%    100.00% |           0      0.00%    100.00% |           0      0.00%    100.00% |           0      0.00%    100.00% |           0      0.00%    100.00% |           0      0.00%    100.00% |           0      0.00%    100.00% |           0      0.00%    100.00% |           0      0.00%    100.00% |           0      0.00%    100.00% |           0      0.00%    100.00% |           0      0.00%    100.00% |           0      0.00%    100.00% |           0      0.00%    100.00% |           0      0.00%    100.00% |           0      0.00%    100.00% |           0      0.00%    100.00% |           0      0.00%    100.00% |           0      0.00%    100.00% |           0      0.00%    100.00% |           0      0.00%    100.00% |           0      0.00%    100.00% |           0      0.00%    100.00% |           0      0.00%    100.00% |           0      0.00%    100.00% |           0      0.00%    100.00%
system.ruby.SimicsNetworkPortInterface_Controller.A.MessageSend::total       557286                      
system.ruby.SimicsNetworkPortInterface_Controller.A.MessageRecv |      118804     21.32%     21.32% |      278643     50.00%     71.32% |       39178      7.03%     78.35% |       41006      7.36%     85.71% |       38502      6.91%     92.62% |       41153      7.38%    100.00% |           0      0.00%    100.00% |           0      0.00%    100.00% |           0      0.00%    100.00% |           0      0.00%    100.00% |           0      0.00%    100.00% |           0      0.00%    100.00% |           0      0.00%    100.00% |           0      0.00%    100.00% |           0      0.00%    100.00% |           0      0.00%    100.00% |           0      0.00%    100.00% |           0      0.00%    100.00% |           0      0.00%    100.00% |           0      0.00%    100.00% |           0      0.00%    100.00% |           0      0.00%    100.00% |           0      0.00%    100.00% |           0      0.00%    100.00% |           0      0.00%    100.00% |           0      0.00%    100.00% |           0      0.00%    100.00% |           0      0.00%    100.00% |           0      0.00%    100.00% |           0      0.00%    100.00% |           0      0.00%    100.00% |           0      0.00%    100.00%
system.ruby.SimicsNetworkPortInterface_Controller.A.MessageRecv::total       557286                      
system.switch_cpus.kern.inst.arm                    0                       # number of arm instructions executed
system.switch_cpus.kern.inst.quiesce                0                       # number of quiesce instructions executed

---------- End Simulation Statistics   ----------
