
---------- Begin Simulation Statistics ----------
sim_seconds                                  0.038639                       # Number of seconds simulated
sim_ticks                                 38639278500                       # Number of ticks simulated
final_tick                               5214807357000                       # Number of ticks from beginning of simulation (restored from checkpoints and never reset)
sim_freq                                 1000000000000                       # Frequency of simulated ticks
host_inst_rate                                  48395                       # Simulator instruction rate (inst/s)
host_op_rate                                    85349                       # Simulator op (including micro ops) rate (op/s)
host_tick_rate                              104279497                       # Simulator tick rate (ticks/s)
host_mem_usage                                3232480                       # Number of bytes of host memory used
host_seconds                                   370.54                       # Real time elapsed on the host
sim_insts                                    17932101                       # Number of instructions simulated
sim_ops                                      31624789                       # Number of ops (including micro ops) simulated
system.voltage_domain.voltage                       1                       # Voltage in Volts
system.clk_domain.clock                           500                       # Clock period in ticks
system.mem_ctrls0.bytes_read::ruby.dir_cntrl0      4688704                       # Number of bytes read from this memory
system.mem_ctrls0.bytes_read::total           4688704                       # Number of bytes read from this memory
system.mem_ctrls0.bytes_written::ruby.dir_cntrl0      2862208                       # Number of bytes written to this memory
system.mem_ctrls0.bytes_written::total        2862208                       # Number of bytes written to this memory
system.mem_ctrls0.num_reads::ruby.dir_cntrl0        73261                       # Number of read requests responded to by this memory
system.mem_ctrls0.num_reads::total              73261                       # Number of read requests responded to by this memory
system.mem_ctrls0.num_writes::ruby.dir_cntrl0        44722                       # Number of write requests responded to by this memory
system.mem_ctrls0.num_writes::total             44722                       # Number of write requests responded to by this memory
system.mem_ctrls0.bw_read::ruby.dir_cntrl0    121345537                       # Total read bandwidth from this memory (bytes/s)
system.mem_ctrls0.bw_read::total            121345537                       # Total read bandwidth from this memory (bytes/s)
system.mem_ctrls0.bw_write::ruby.dir_cntrl0     74075089                       # Write bandwidth from this memory (bytes/s)
system.mem_ctrls0.bw_write::total            74075089                       # Write bandwidth from this memory (bytes/s)
system.mem_ctrls0.bw_total::ruby.dir_cntrl0    195420626                       # Total bandwidth to/from this memory (bytes/s)
system.mem_ctrls0.bw_total::total           195420626                       # Total bandwidth to/from this memory (bytes/s)
system.mem_ctrls0.readReqs                      73261                       # Number of read requests accepted
system.mem_ctrls0.writeReqs                     44722                       # Number of write requests accepted
system.mem_ctrls0.readBursts                    73261                       # Number of DRAM read bursts, including those serviced by the write queue
system.mem_ctrls0.writeBursts                   44722                       # Number of DRAM write bursts, including those merged in the write queue
system.mem_ctrls0.bytesReadDRAM               4687872                       # Total number of bytes read from DRAM
system.mem_ctrls0.bytesReadWrQ                    832                       # Total number of bytes read from write queue
system.mem_ctrls0.bytesWritten                2862144                       # Total number of bytes written to DRAM
system.mem_ctrls0.bytesReadSys                4688704                       # Total read bytes from the system interface side
system.mem_ctrls0.bytesWrittenSys             2862208                       # Total written bytes from the system interface side
system.mem_ctrls0.servicedByWrQ                    13                       # Number of DRAM read bursts serviced by the write queue
system.mem_ctrls0.mergedWrBursts                    0                       # Number of DRAM write bursts merged with an existing one
system.mem_ctrls0.neitherReadNorWriteReqs            0                       # Number of requests that are neither read nor write
system.mem_ctrls0.perBankRdBursts::0             4426                       # Per bank write bursts
system.mem_ctrls0.perBankRdBursts::1             4891                       # Per bank write bursts
system.mem_ctrls0.perBankRdBursts::2             4541                       # Per bank write bursts
system.mem_ctrls0.perBankRdBursts::3             4886                       # Per bank write bursts
system.mem_ctrls0.perBankRdBursts::4             4634                       # Per bank write bursts
system.mem_ctrls0.perBankRdBursts::5             4726                       # Per bank write bursts
system.mem_ctrls0.perBankRdBursts::6             4552                       # Per bank write bursts
system.mem_ctrls0.perBankRdBursts::7             4523                       # Per bank write bursts
system.mem_ctrls0.perBankRdBursts::8             4505                       # Per bank write bursts
system.mem_ctrls0.perBankRdBursts::9             4793                       # Per bank write bursts
system.mem_ctrls0.perBankRdBursts::10            4517                       # Per bank write bursts
system.mem_ctrls0.perBankRdBursts::11            4732                       # Per bank write bursts
system.mem_ctrls0.perBankRdBursts::12            4350                       # Per bank write bursts
system.mem_ctrls0.perBankRdBursts::13            4197                       # Per bank write bursts
system.mem_ctrls0.perBankRdBursts::14            4469                       # Per bank write bursts
system.mem_ctrls0.perBankRdBursts::15            4506                       # Per bank write bursts
system.mem_ctrls0.perBankWrBursts::0             2818                       # Per bank write bursts
system.mem_ctrls0.perBankWrBursts::1             2810                       # Per bank write bursts
system.mem_ctrls0.perBankWrBursts::2             2793                       # Per bank write bursts
system.mem_ctrls0.perBankWrBursts::3             2882                       # Per bank write bursts
system.mem_ctrls0.perBankWrBursts::4             2801                       # Per bank write bursts
system.mem_ctrls0.perBankWrBursts::5             2939                       # Per bank write bursts
system.mem_ctrls0.perBankWrBursts::6             2769                       # Per bank write bursts
system.mem_ctrls0.perBankWrBursts::7             2846                       # Per bank write bursts
system.mem_ctrls0.perBankWrBursts::8             2739                       # Per bank write bursts
system.mem_ctrls0.perBankWrBursts::9             2919                       # Per bank write bursts
system.mem_ctrls0.perBankWrBursts::10            2766                       # Per bank write bursts
system.mem_ctrls0.perBankWrBursts::11            2698                       # Per bank write bursts
system.mem_ctrls0.perBankWrBursts::12            2633                       # Per bank write bursts
system.mem_ctrls0.perBankWrBursts::13            2670                       # Per bank write bursts
system.mem_ctrls0.perBankWrBursts::14            2877                       # Per bank write bursts
system.mem_ctrls0.perBankWrBursts::15            2761                       # Per bank write bursts
system.mem_ctrls0.numRdRetry                    15071                       # Number of times read queue was full causing retry
system.mem_ctrls0.numWrRetry                     2862                       # Number of times write queue was full causing retry
system.mem_ctrls0.totGap                  38638766000                       # Total gap between requests
system.mem_ctrls0.readPktSize::0                    0                       # Read request sizes (log2)
system.mem_ctrls0.readPktSize::1                    0                       # Read request sizes (log2)
system.mem_ctrls0.readPktSize::2                    0                       # Read request sizes (log2)
system.mem_ctrls0.readPktSize::3                    0                       # Read request sizes (log2)
system.mem_ctrls0.readPktSize::4                    0                       # Read request sizes (log2)
system.mem_ctrls0.readPktSize::5                    0                       # Read request sizes (log2)
system.mem_ctrls0.readPktSize::6                73261                       # Read request sizes (log2)
system.mem_ctrls0.writePktSize::0                   0                       # Write request sizes (log2)
system.mem_ctrls0.writePktSize::1                   0                       # Write request sizes (log2)
system.mem_ctrls0.writePktSize::2                   0                       # Write request sizes (log2)
system.mem_ctrls0.writePktSize::3                   0                       # Write request sizes (log2)
system.mem_ctrls0.writePktSize::4                   0                       # Write request sizes (log2)
system.mem_ctrls0.writePktSize::5                   0                       # Write request sizes (log2)
system.mem_ctrls0.writePktSize::6               44722                       # Write request sizes (log2)
system.mem_ctrls0.rdQLenPdf::0                  43234                       # What read queue length does an incoming req see
system.mem_ctrls0.rdQLenPdf::1                   1303                       # What read queue length does an incoming req see
system.mem_ctrls0.rdQLenPdf::2                    611                       # What read queue length does an incoming req see
system.mem_ctrls0.rdQLenPdf::3                    286                       # What read queue length does an incoming req see
system.mem_ctrls0.rdQLenPdf::4                    342                       # What read queue length does an incoming req see
system.mem_ctrls0.rdQLenPdf::5                    374                       # What read queue length does an incoming req see
system.mem_ctrls0.rdQLenPdf::6                    441                       # What read queue length does an incoming req see
system.mem_ctrls0.rdQLenPdf::7                    452                       # What read queue length does an incoming req see
system.mem_ctrls0.rdQLenPdf::8                    462                       # What read queue length does an incoming req see
system.mem_ctrls0.rdQLenPdf::9                    499                       # What read queue length does an incoming req see
system.mem_ctrls0.rdQLenPdf::10                   519                       # What read queue length does an incoming req see
system.mem_ctrls0.rdQLenPdf::11                   508                       # What read queue length does an incoming req see
system.mem_ctrls0.rdQLenPdf::12                   510                       # What read queue length does an incoming req see
system.mem_ctrls0.rdQLenPdf::13                   515                       # What read queue length does an incoming req see
system.mem_ctrls0.rdQLenPdf::14                   439                       # What read queue length does an incoming req see
system.mem_ctrls0.rdQLenPdf::15                   436                       # What read queue length does an incoming req see
system.mem_ctrls0.rdQLenPdf::16                   378                       # What read queue length does an incoming req see
system.mem_ctrls0.rdQLenPdf::17                   346                       # What read queue length does an incoming req see
system.mem_ctrls0.rdQLenPdf::18                   351                       # What read queue length does an incoming req see
system.mem_ctrls0.rdQLenPdf::19                   346                       # What read queue length does an incoming req see
system.mem_ctrls0.rdQLenPdf::20                   344                       # What read queue length does an incoming req see
system.mem_ctrls0.rdQLenPdf::21                   350                       # What read queue length does an incoming req see
system.mem_ctrls0.rdQLenPdf::22                   376                       # What read queue length does an incoming req see
system.mem_ctrls0.rdQLenPdf::23                   390                       # What read queue length does an incoming req see
system.mem_ctrls0.rdQLenPdf::24                   380                       # What read queue length does an incoming req see
system.mem_ctrls0.rdQLenPdf::25                   386                       # What read queue length does an incoming req see
system.mem_ctrls0.rdQLenPdf::26                   404                       # What read queue length does an incoming req see
system.mem_ctrls0.rdQLenPdf::27                   474                       # What read queue length does an incoming req see
system.mem_ctrls0.rdQLenPdf::28                   518                       # What read queue length does an incoming req see
system.mem_ctrls0.rdQLenPdf::29                   545                       # What read queue length does an incoming req see
system.mem_ctrls0.rdQLenPdf::30                   688                       # What read queue length does an incoming req see
system.mem_ctrls0.rdQLenPdf::31                 16041                       # What read queue length does an incoming req see
system.mem_ctrls0.wrQLenPdf::0                   7430                       # What write queue length does an incoming req see
system.mem_ctrls0.wrQLenPdf::1                   7608                       # What write queue length does an incoming req see
system.mem_ctrls0.wrQLenPdf::2                   7718                       # What write queue length does an incoming req see
system.mem_ctrls0.wrQLenPdf::3                   7705                       # What write queue length does an incoming req see
system.mem_ctrls0.wrQLenPdf::4                   7773                       # What write queue length does an incoming req see
system.mem_ctrls0.wrQLenPdf::5                   1053                       # What write queue length does an incoming req see
system.mem_ctrls0.wrQLenPdf::6                   1343                       # What write queue length does an incoming req see
system.mem_ctrls0.wrQLenPdf::7                   4092                       # What write queue length does an incoming req see
system.mem_ctrls0.bytesPerActivate::samples        32361                       # Bytes accessed per row activation
system.mem_ctrls0.bytesPerActivate::mean   233.270418                       # Bytes accessed per row activation
system.mem_ctrls0.bytesPerActivate::gmean   157.415124                       # Bytes accessed per row activation
system.mem_ctrls0.bytesPerActivate::stdev   232.623487                       # Bytes accessed per row activation
system.mem_ctrls0.bytesPerActivate::0-127        12665     39.14%     39.14% # Bytes accessed per row activation
system.mem_ctrls0.bytesPerActivate::128-255         7108     21.96%     61.10% # Bytes accessed per row activation
system.mem_ctrls0.bytesPerActivate::256-383         7977     24.65%     85.75% # Bytes accessed per row activation
system.mem_ctrls0.bytesPerActivate::384-511         1081      3.34%     89.09% # Bytes accessed per row activation
system.mem_ctrls0.bytesPerActivate::512-639          850      2.63%     91.72% # Bytes accessed per row activation
system.mem_ctrls0.bytesPerActivate::640-767          653      2.02%     93.74% # Bytes accessed per row activation
system.mem_ctrls0.bytesPerActivate::768-895          493      1.52%     95.26% # Bytes accessed per row activation
system.mem_ctrls0.bytesPerActivate::896-1023          457      1.41%     96.67% # Bytes accessed per row activation
system.mem_ctrls0.bytesPerActivate::1024-1151         1077      3.33%    100.00% # Bytes accessed per row activation
system.mem_ctrls0.bytesPerActivate::total        32361                       # Bytes accessed per row activation
system.mem_ctrls0.rdPerTurnAround::samples         7667                       # Reads before turning the bus around for writes
system.mem_ctrls0.rdPerTurnAround::mean      9.551976                       # Reads before turning the bus around for writes
system.mem_ctrls0.rdPerTurnAround::stdev    47.338408                       # Reads before turning the bus around for writes
system.mem_ctrls0.rdPerTurnAround::0-127         7660     99.91%     99.91% # Reads before turning the bus around for writes
system.mem_ctrls0.rdPerTurnAround::128-255            6      0.08%     99.99% # Reads before turning the bus around for writes
system.mem_ctrls0.rdPerTurnAround::3968-4095            1      0.01%    100.00% # Reads before turning the bus around for writes
system.mem_ctrls0.rdPerTurnAround::total         7667                       # Reads before turning the bus around for writes
system.mem_ctrls0.wrPerTurnAround::samples         7667                       # Writes before turning the bus around for reads
system.mem_ctrls0.wrPerTurnAround::mean      5.832920                       # Writes before turning the bus around for reads
system.mem_ctrls0.wrPerTurnAround::gmean     5.517835                       # Writes before turning the bus around for reads
system.mem_ctrls0.wrPerTurnAround::stdev     2.595702                       # Writes before turning the bus around for reads
system.mem_ctrls0.wrPerTurnAround::4-7           6946     90.60%     90.60% # Writes before turning the bus around for reads
system.mem_ctrls0.wrPerTurnAround::8-11           233      3.04%     93.64% # Writes before turning the bus around for reads
system.mem_ctrls0.wrPerTurnAround::12-15          164      2.14%     95.77% # Writes before turning the bus around for reads
system.mem_ctrls0.wrPerTurnAround::16-19          324      4.23%    100.00% # Writes before turning the bus around for reads
system.mem_ctrls0.wrPerTurnAround::total         7667                       # Writes before turning the bus around for reads
system.mem_ctrls0.totQLat                  6819537572                       # Total ticks spent queuing
system.mem_ctrls0.totMemAccLat             8192937572                       # Total ticks spent from burst creation until serviced by the DRAM
system.mem_ctrls0.totBusLat                 366240000                       # Total ticks spent in databus transfers
system.mem_ctrls0.avgQLat                    93102.03                       # Average queueing delay per DRAM burst
system.mem_ctrls0.avgBusLat                   5000.00                       # Average bus latency per DRAM burst
system.mem_ctrls0.avgMemAccLat              111852.03                       # Average memory access latency per DRAM burst
system.mem_ctrls0.avgRdBW                      121.32                       # Average DRAM read bandwidth in MiByte/s
system.mem_ctrls0.avgWrBW                       74.07                       # Average achieved write bandwidth in MiByte/s
system.mem_ctrls0.avgRdBWSys                   121.35                       # Average system read bandwidth in MiByte/s
system.mem_ctrls0.avgWrBWSys                    74.08                       # Average system write bandwidth in MiByte/s
system.mem_ctrls0.peakBW                     12800.00                       # Theoretical peak bandwidth in MiByte/s
system.mem_ctrls0.busUtil                        1.53                       # Data bus utilization in percentage
system.mem_ctrls0.busUtilRead                    0.95                       # Data bus utilization in percentage for reads
system.mem_ctrls0.busUtilWrite                   0.58                       # Data bus utilization in percentage for writes
system.mem_ctrls0.avgRdQLen                      1.19                       # Average read queue length when enqueuing
system.mem_ctrls0.avgWrQLen                      2.87                       # Average write queue length when enqueuing
system.mem_ctrls0.readRowHits                   56401                       # Number of row buffer hits during reads
system.mem_ctrls0.writeRowHits                  29197                       # Number of row buffer hits during writes
system.mem_ctrls0.readRowHitRate                77.00                       # Row buffer hit rate for reads
system.mem_ctrls0.writeRowHitRate               65.29                       # Row buffer hit rate for writes
system.mem_ctrls0.avgGap                    327494.35                       # Average gap between requests
system.mem_ctrls0.pageHitRate                   72.56                       # Row buffer hit rate, read and write combined
system.mem_ctrls0.memoryStateTime::IDLE   10429659250                       # Time in different power states
system.mem_ctrls0.memoryStateTime::REF     1290120000                       # Time in different power states
system.mem_ctrls0.memoryStateTime::PRE_PDN            0                       # Time in different power states
system.mem_ctrls0.memoryStateTime::ACT    26916212250                       # Time in different power states
system.mem_ctrls0.memoryStateTime::ACT_PDN            0                       # Time in different power states
system.mem_ctrls0.actEnergy::0              126781200                       # Energy for activate commands per rank (pJ)
system.mem_ctrls0.actEnergy::1              117830160                       # Energy for activate commands per rank (pJ)
system.mem_ctrls0.preEnergy::0               69176250                       # Energy for precharge commands per rank (pJ)
system.mem_ctrls0.preEnergy::1               64292250                       # Energy for precharge commands per rank (pJ)
system.mem_ctrls0.readEnergy::0             289933800                       # Energy for read commands per rank (pJ)
system.mem_ctrls0.readEnergy::1             281244600                       # Energy for read commands per rank (pJ)
system.mem_ctrls0.writeEnergy::0            146797920                       # Energy for write commands per rank (pJ)
system.mem_ctrls0.writeEnergy::1            142961760                       # Energy for write commands per rank (pJ)
system.mem_ctrls0.refreshEnergy::0         2523474720                       # Energy for refresh commands per rank (pJ)
system.mem_ctrls0.refreshEnergy::1         2523474720                       # Energy for refresh commands per rank (pJ)
system.mem_ctrls0.actBackEnergy::0        14065278390                       # Energy for active background per rank (pJ)
system.mem_ctrls0.actBackEnergy::1        13706316900                       # Energy for active background per rank (pJ)
system.mem_ctrls0.preBackEnergy::0        10843430250                       # Energy for precharge background per rank (pJ)
system.mem_ctrls0.preBackEnergy::1        11158308750                       # Energy for precharge background per rank (pJ)
system.mem_ctrls0.totalEnergy::0          28064872530                       # Total energy per rank (pJ)
system.mem_ctrls0.totalEnergy::1          27994429140                       # Total energy per rank (pJ)
system.mem_ctrls0.averagePower::0          726.398236                       # Core power per rank (mW)
system.mem_ctrls0.averagePower::1          724.574962                       # Core power per rank (mW)
system.mem_ctrls1.bytes_read::ruby.dir_cntrl1      4564160                       # Number of bytes read from this memory
system.mem_ctrls1.bytes_read::total           4564160                       # Number of bytes read from this memory
system.mem_ctrls1.bytes_written::ruby.dir_cntrl1      2746624                       # Number of bytes written to this memory
system.mem_ctrls1.bytes_written::total        2746624                       # Number of bytes written to this memory
system.mem_ctrls1.num_reads::ruby.dir_cntrl1        71315                       # Number of read requests responded to by this memory
system.mem_ctrls1.num_reads::total              71315                       # Number of read requests responded to by this memory
system.mem_ctrls1.num_writes::ruby.dir_cntrl1        42916                       # Number of write requests responded to by this memory
system.mem_ctrls1.num_writes::total             42916                       # Number of write requests responded to by this memory
system.mem_ctrls1.bw_read::ruby.dir_cntrl1    118122288                       # Total read bandwidth from this memory (bytes/s)
system.mem_ctrls1.bw_read::total            118122288                       # Total read bandwidth from this memory (bytes/s)
system.mem_ctrls1.bw_write::ruby.dir_cntrl1     71083729                       # Write bandwidth from this memory (bytes/s)
system.mem_ctrls1.bw_write::total            71083729                       # Write bandwidth from this memory (bytes/s)
system.mem_ctrls1.bw_total::ruby.dir_cntrl1    189206017                       # Total bandwidth to/from this memory (bytes/s)
system.mem_ctrls1.bw_total::total           189206017                       # Total bandwidth to/from this memory (bytes/s)
system.mem_ctrls1.readReqs                      71315                       # Number of read requests accepted
system.mem_ctrls1.writeReqs                     42916                       # Number of write requests accepted
system.mem_ctrls1.readBursts                    71315                       # Number of DRAM read bursts, including those serviced by the write queue
system.mem_ctrls1.writeBursts                   42916                       # Number of DRAM write bursts, including those merged in the write queue
system.mem_ctrls1.bytesReadDRAM               4563200                       # Total number of bytes read from DRAM
system.mem_ctrls1.bytesReadWrQ                    960                       # Total number of bytes read from write queue
system.mem_ctrls1.bytesWritten                2746560                       # Total number of bytes written to DRAM
system.mem_ctrls1.bytesReadSys                4564160                       # Total read bytes from the system interface side
system.mem_ctrls1.bytesWrittenSys             2746624                       # Total written bytes from the system interface side
system.mem_ctrls1.servicedByWrQ                    15                       # Number of DRAM read bursts serviced by the write queue
system.mem_ctrls1.mergedWrBursts                    0                       # Number of DRAM write bursts merged with an existing one
system.mem_ctrls1.neitherReadNorWriteReqs            0                       # Number of requests that are neither read nor write
system.mem_ctrls1.perBankRdBursts::0             4309                       # Per bank write bursts
system.mem_ctrls1.perBankRdBursts::1             4752                       # Per bank write bursts
system.mem_ctrls1.perBankRdBursts::2             4420                       # Per bank write bursts
system.mem_ctrls1.perBankRdBursts::3             4767                       # Per bank write bursts
system.mem_ctrls1.perBankRdBursts::4             4524                       # Per bank write bursts
system.mem_ctrls1.perBankRdBursts::5             4631                       # Per bank write bursts
system.mem_ctrls1.perBankRdBursts::6             4425                       # Per bank write bursts
system.mem_ctrls1.perBankRdBursts::7             4426                       # Per bank write bursts
system.mem_ctrls1.perBankRdBursts::8             4376                       # Per bank write bursts
system.mem_ctrls1.perBankRdBursts::9             4671                       # Per bank write bursts
system.mem_ctrls1.perBankRdBursts::10            4400                       # Per bank write bursts
system.mem_ctrls1.perBankRdBursts::11            4614                       # Per bank write bursts
system.mem_ctrls1.perBankRdBursts::12            4228                       # Per bank write bursts
system.mem_ctrls1.perBankRdBursts::13            4084                       # Per bank write bursts
system.mem_ctrls1.perBankRdBursts::14            4274                       # Per bank write bursts
system.mem_ctrls1.perBankRdBursts::15            4399                       # Per bank write bursts
system.mem_ctrls1.perBankWrBursts::0             2710                       # Per bank write bursts
system.mem_ctrls1.perBankWrBursts::1             2714                       # Per bank write bursts
system.mem_ctrls1.perBankWrBursts::2             2691                       # Per bank write bursts
system.mem_ctrls1.perBankWrBursts::3             2773                       # Per bank write bursts
system.mem_ctrls1.perBankWrBursts::4             2699                       # Per bank write bursts
system.mem_ctrls1.perBankWrBursts::5             2832                       # Per bank write bursts
system.mem_ctrls1.perBankWrBursts::6             2643                       # Per bank write bursts
system.mem_ctrls1.perBankWrBursts::7             2732                       # Per bank write bursts
system.mem_ctrls1.perBankWrBursts::8             2629                       # Per bank write bursts
system.mem_ctrls1.perBankWrBursts::9             2805                       # Per bank write bursts
system.mem_ctrls1.perBankWrBursts::10            2661                       # Per bank write bursts
system.mem_ctrls1.perBankWrBursts::11            2586                       # Per bank write bursts
system.mem_ctrls1.perBankWrBursts::12            2527                       # Per bank write bursts
system.mem_ctrls1.perBankWrBursts::13            2553                       # Per bank write bursts
system.mem_ctrls1.perBankWrBursts::14            2708                       # Per bank write bursts
system.mem_ctrls1.perBankWrBursts::15            2652                       # Per bank write bursts
system.mem_ctrls1.numRdRetry                     8458                       # Number of times read queue was full causing retry
system.mem_ctrls1.numWrRetry                     2294                       # Number of times write queue was full causing retry
system.mem_ctrls1.totGap                  38638514000                       # Total gap between requests
system.mem_ctrls1.readPktSize::0                    0                       # Read request sizes (log2)
system.mem_ctrls1.readPktSize::1                    0                       # Read request sizes (log2)
system.mem_ctrls1.readPktSize::2                    0                       # Read request sizes (log2)
system.mem_ctrls1.readPktSize::3                    0                       # Read request sizes (log2)
system.mem_ctrls1.readPktSize::4                    0                       # Read request sizes (log2)
system.mem_ctrls1.readPktSize::5                    0                       # Read request sizes (log2)
system.mem_ctrls1.readPktSize::6                71315                       # Read request sizes (log2)
system.mem_ctrls1.writePktSize::0                   0                       # Write request sizes (log2)
system.mem_ctrls1.writePktSize::1                   0                       # Write request sizes (log2)
system.mem_ctrls1.writePktSize::2                   0                       # Write request sizes (log2)
system.mem_ctrls1.writePktSize::3                   0                       # Write request sizes (log2)
system.mem_ctrls1.writePktSize::4                   0                       # Write request sizes (log2)
system.mem_ctrls1.writePktSize::5                   0                       # Write request sizes (log2)
system.mem_ctrls1.writePktSize::6               42916                       # Write request sizes (log2)
system.mem_ctrls1.rdQLenPdf::0                  42382                       # What read queue length does an incoming req see
system.mem_ctrls1.rdQLenPdf::1                    585                       # What read queue length does an incoming req see
system.mem_ctrls1.rdQLenPdf::2                    309                       # What read queue length does an incoming req see
system.mem_ctrls1.rdQLenPdf::3                    397                       # What read queue length does an incoming req see
system.mem_ctrls1.rdQLenPdf::4                    418                       # What read queue length does an incoming req see
system.mem_ctrls1.rdQLenPdf::5                    480                       # What read queue length does an incoming req see
system.mem_ctrls1.rdQLenPdf::6                    532                       # What read queue length does an incoming req see
system.mem_ctrls1.rdQLenPdf::7                    569                       # What read queue length does an incoming req see
system.mem_ctrls1.rdQLenPdf::8                    647                       # What read queue length does an incoming req see
system.mem_ctrls1.rdQLenPdf::9                    692                       # What read queue length does an incoming req see
system.mem_ctrls1.rdQLenPdf::10                   733                       # What read queue length does an incoming req see
system.mem_ctrls1.rdQLenPdf::11                   750                       # What read queue length does an incoming req see
system.mem_ctrls1.rdQLenPdf::12                   799                       # What read queue length does an incoming req see
system.mem_ctrls1.rdQLenPdf::13                   806                       # What read queue length does an incoming req see
system.mem_ctrls1.rdQLenPdf::14                   803                       # What read queue length does an incoming req see
system.mem_ctrls1.rdQLenPdf::15                   790                       # What read queue length does an incoming req see
system.mem_ctrls1.rdQLenPdf::16                   756                       # What read queue length does an incoming req see
system.mem_ctrls1.rdQLenPdf::17                   761                       # What read queue length does an incoming req see
system.mem_ctrls1.rdQLenPdf::18                   674                       # What read queue length does an incoming req see
system.mem_ctrls1.rdQLenPdf::19                   672                       # What read queue length does an incoming req see
system.mem_ctrls1.rdQLenPdf::20                   673                       # What read queue length does an incoming req see
system.mem_ctrls1.rdQLenPdf::21                   736                       # What read queue length does an incoming req see
system.mem_ctrls1.rdQLenPdf::22                   664                       # What read queue length does an incoming req see
system.mem_ctrls1.rdQLenPdf::23                   659                       # What read queue length does an incoming req see
system.mem_ctrls1.rdQLenPdf::24                   601                       # What read queue length does an incoming req see
system.mem_ctrls1.rdQLenPdf::25                   599                       # What read queue length does an incoming req see
system.mem_ctrls1.rdQLenPdf::26                   642                       # What read queue length does an incoming req see
system.mem_ctrls1.rdQLenPdf::27                   626                       # What read queue length does an incoming req see
system.mem_ctrls1.rdQLenPdf::28                   658                       # What read queue length does an incoming req see
system.mem_ctrls1.rdQLenPdf::29                   704                       # What read queue length does an incoming req see
system.mem_ctrls1.rdQLenPdf::30                   795                       # What read queue length does an incoming req see
system.mem_ctrls1.rdQLenPdf::31                  9388                       # What read queue length does an incoming req see
system.mem_ctrls1.wrQLenPdf::0                   7153                       # What write queue length does an incoming req see
system.mem_ctrls1.wrQLenPdf::1                   7348                       # What write queue length does an incoming req see
system.mem_ctrls1.wrQLenPdf::2                   7435                       # What write queue length does an incoming req see
system.mem_ctrls1.wrQLenPdf::3                   7539                       # What write queue length does an incoming req see
system.mem_ctrls1.wrQLenPdf::4                   7615                       # What write queue length does an incoming req see
system.mem_ctrls1.wrQLenPdf::5                   1151                       # What write queue length does an incoming req see
system.mem_ctrls1.wrQLenPdf::6                   1276                       # What write queue length does an incoming req see
system.mem_ctrls1.wrQLenPdf::7                   3399                       # What write queue length does an incoming req see
system.mem_ctrls1.bytesPerActivate::samples        28711                       # Bytes accessed per row activation
system.mem_ctrls1.bytesPerActivate::mean   254.571140                       # Bytes accessed per row activation
system.mem_ctrls1.bytesPerActivate::gmean   175.882336                       # Bytes accessed per row activation
system.mem_ctrls1.bytesPerActivate::stdev   236.815299                       # Bytes accessed per row activation
system.mem_ctrls1.bytesPerActivate::0-127         9354     32.58%     32.58% # Bytes accessed per row activation
system.mem_ctrls1.bytesPerActivate::128-255         6539     22.78%     55.36% # Bytes accessed per row activation
system.mem_ctrls1.bytesPerActivate::256-383         8045     28.02%     83.38% # Bytes accessed per row activation
system.mem_ctrls1.bytesPerActivate::384-511         1261      4.39%     87.77% # Bytes accessed per row activation
system.mem_ctrls1.bytesPerActivate::512-639          899      3.13%     90.90% # Bytes accessed per row activation
system.mem_ctrls1.bytesPerActivate::640-767          617      2.15%     93.05% # Bytes accessed per row activation
system.mem_ctrls1.bytesPerActivate::768-895          527      1.84%     94.88% # Bytes accessed per row activation
system.mem_ctrls1.bytesPerActivate::896-1023          474      1.65%     96.53% # Bytes accessed per row activation
system.mem_ctrls1.bytesPerActivate::1024-1151          995      3.47%    100.00% # Bytes accessed per row activation
system.mem_ctrls1.bytesPerActivate::total        28711                       # Bytes accessed per row activation
system.mem_ctrls1.rdPerTurnAround::samples         7387                       # Reads before turning the bus around for writes
system.mem_ctrls1.rdPerTurnAround::mean      9.649249                       # Reads before turning the bus around for writes
system.mem_ctrls1.rdPerTurnAround::stdev    38.564308                       # Reads before turning the bus around for writes
system.mem_ctrls1.rdPerTurnAround::0-127         7379     99.89%     99.89% # Reads before turning the bus around for writes
system.mem_ctrls1.rdPerTurnAround::128-255            6      0.08%     99.97% # Reads before turning the bus around for writes
system.mem_ctrls1.rdPerTurnAround::1152-1279            1      0.01%     99.99% # Reads before turning the bus around for writes
system.mem_ctrls1.rdPerTurnAround::2816-2943            1      0.01%    100.00% # Reads before turning the bus around for writes
system.mem_ctrls1.rdPerTurnAround::total         7387                       # Reads before turning the bus around for writes
system.mem_ctrls1.wrPerTurnAround::samples         7387                       # Writes before turning the bus around for reads
system.mem_ctrls1.wrPerTurnAround::mean      5.809530                       # Writes before turning the bus around for reads
system.mem_ctrls1.wrPerTurnAround::gmean     5.504504                       # Writes before turning the bus around for reads
system.mem_ctrls1.wrPerTurnAround::stdev     2.544886                       # Writes before turning the bus around for reads
system.mem_ctrls1.wrPerTurnAround::4-7           6675     90.36%     90.36% # Writes before turning the bus around for reads
system.mem_ctrls1.wrPerTurnAround::8-11           263      3.56%     93.92% # Writes before turning the bus around for reads
system.mem_ctrls1.wrPerTurnAround::12-15          148      2.00%     95.93% # Writes before turning the bus around for reads
system.mem_ctrls1.wrPerTurnAround::16-19          301      4.07%    100.00% # Writes before turning the bus around for reads
system.mem_ctrls1.wrPerTurnAround::total         7387                       # Writes before turning the bus around for reads
system.mem_ctrls1.totQLat                  5720730229                       # Total ticks spent queuing
system.mem_ctrls1.totMemAccLat             7057605229                       # Total ticks spent from burst creation until serviced by the DRAM
system.mem_ctrls1.totBusLat                 356500000                       # Total ticks spent in databus transfers
system.mem_ctrls1.avgQLat                    80234.65                       # Average queueing delay per DRAM burst
system.mem_ctrls1.avgBusLat                   5000.00                       # Average bus latency per DRAM burst
system.mem_ctrls1.avgMemAccLat               98984.65                       # Average memory access latency per DRAM burst
system.mem_ctrls1.avgRdBW                      118.10                       # Average DRAM read bandwidth in MiByte/s
system.mem_ctrls1.avgWrBW                       71.08                       # Average achieved write bandwidth in MiByte/s
system.mem_ctrls1.avgRdBWSys                   118.12                       # Average system read bandwidth in MiByte/s
system.mem_ctrls1.avgWrBWSys                    71.08                       # Average system write bandwidth in MiByte/s
system.mem_ctrls1.peakBW                     12800.00                       # Theoretical peak bandwidth in MiByte/s
system.mem_ctrls1.busUtil                        1.48                       # Data bus utilization in percentage
system.mem_ctrls1.busUtilRead                    0.92                       # Data bus utilization in percentage for reads
system.mem_ctrls1.busUtilWrite                   0.56                       # Data bus utilization in percentage for writes
system.mem_ctrls1.avgRdQLen                      1.16                       # Average read queue length when enqueuing
system.mem_ctrls1.avgWrQLen                      2.86                       # Average write queue length when enqueuing
system.mem_ctrls1.readRowHits                   55866                       # Number of row buffer hits during reads
system.mem_ctrls1.writeRowHits                  29634                       # Number of row buffer hits during writes
system.mem_ctrls1.readRowHitRate                78.35                       # Row buffer hit rate for reads
system.mem_ctrls1.writeRowHitRate               69.05                       # Row buffer hit rate for writes
system.mem_ctrls1.avgGap                    338248.93                       # Average gap between requests
system.mem_ctrls1.pageHitRate                   74.86                       # Row buffer hit rate, read and write combined
system.mem_ctrls1.memoryStateTime::IDLE   10617688000                       # Time in different power states
system.mem_ctrls1.memoryStateTime::REF     1290120000                       # Time in different power states
system.mem_ctrls1.memoryStateTime::PRE_PDN            0                       # Time in different power states
system.mem_ctrls1.memoryStateTime::ACT    26727838250                       # Time in different power states
system.mem_ctrls1.memoryStateTime::ACT_PDN            0                       # Time in different power states
system.mem_ctrls1.actEnergy::0              113203440                       # Energy for activate commands per rank (pJ)
system.mem_ctrls1.actEnergy::1              103844160                       # Energy for activate commands per rank (pJ)
system.mem_ctrls1.preEnergy::0               61767750                       # Energy for precharge commands per rank (pJ)
system.mem_ctrls1.preEnergy::1               56661000                       # Energy for precharge commands per rank (pJ)
system.mem_ctrls1.readEnergy::0             282742200                       # Energy for read commands per rank (pJ)
system.mem_ctrls1.readEnergy::1             273265200                       # Energy for read commands per rank (pJ)
system.mem_ctrls1.writeEnergy::0            141225120                       # Energy for write commands per rank (pJ)
system.mem_ctrls1.writeEnergy::1            136864080                       # Energy for write commands per rank (pJ)
system.mem_ctrls1.refreshEnergy::0         2523474720                       # Energy for refresh commands per rank (pJ)
system.mem_ctrls1.refreshEnergy::1         2523474720                       # Energy for refresh commands per rank (pJ)
system.mem_ctrls1.actBackEnergy::0        13933687905                       # Energy for active background per rank (pJ)
system.mem_ctrls1.actBackEnergy::1        13271170635                       # Energy for active background per rank (pJ)
system.mem_ctrls1.preBackEnergy::0        10958846250                       # Energy for precharge background per rank (pJ)
system.mem_ctrls1.preBackEnergy::1        11540001750                       # Energy for precharge background per rank (pJ)
system.mem_ctrls1.totalEnergy::0          28014947385                       # Total energy per rank (pJ)
system.mem_ctrls1.totalEnergy::1          27905281545                       # Total energy per rank (pJ)
system.mem_ctrls1.averagePower::0          725.106477                       # Core power per rank (mW)
system.mem_ctrls1.averagePower::1          722.268014                       # Core power per rank (mW)
system.mem_ctrls2.bytes_read::ruby.dir_cntrl2      4566656                       # Number of bytes read from this memory
system.mem_ctrls2.bytes_read::total           4566656                       # Number of bytes read from this memory
system.mem_ctrls2.bytes_written::ruby.dir_cntrl2      2748160                       # Number of bytes written to this memory
system.mem_ctrls2.bytes_written::total        2748160                       # Number of bytes written to this memory
system.mem_ctrls2.num_reads::ruby.dir_cntrl2        71354                       # Number of read requests responded to by this memory
system.mem_ctrls2.num_reads::total              71354                       # Number of read requests responded to by this memory
system.mem_ctrls2.num_writes::ruby.dir_cntrl2        42940                       # Number of write requests responded to by this memory
system.mem_ctrls2.num_writes::total             42940                       # Number of write requests responded to by this memory
system.mem_ctrls2.bw_read::ruby.dir_cntrl2    118186886                       # Total read bandwidth from this memory (bytes/s)
system.mem_ctrls2.bw_read::total            118186886                       # Total read bandwidth from this memory (bytes/s)
system.mem_ctrls2.bw_write::ruby.dir_cntrl2     71123481                       # Write bandwidth from this memory (bytes/s)
system.mem_ctrls2.bw_write::total            71123481                       # Write bandwidth from this memory (bytes/s)
system.mem_ctrls2.bw_total::ruby.dir_cntrl2    189310367                       # Total bandwidth to/from this memory (bytes/s)
system.mem_ctrls2.bw_total::total           189310367                       # Total bandwidth to/from this memory (bytes/s)
system.mem_ctrls2.readReqs                      71354                       # Number of read requests accepted
system.mem_ctrls2.writeReqs                     42940                       # Number of write requests accepted
system.mem_ctrls2.readBursts                    71354                       # Number of DRAM read bursts, including those serviced by the write queue
system.mem_ctrls2.writeBursts                   42940                       # Number of DRAM write bursts, including those merged in the write queue
system.mem_ctrls2.bytesReadDRAM               4565696                       # Total number of bytes read from DRAM
system.mem_ctrls2.bytesReadWrQ                    960                       # Total number of bytes read from write queue
system.mem_ctrls2.bytesWritten                2747904                       # Total number of bytes written to DRAM
system.mem_ctrls2.bytesReadSys                4566656                       # Total read bytes from the system interface side
system.mem_ctrls2.bytesWrittenSys             2748160                       # Total written bytes from the system interface side
system.mem_ctrls2.servicedByWrQ                    15                       # Number of DRAM read bursts serviced by the write queue
system.mem_ctrls2.mergedWrBursts                    0                       # Number of DRAM write bursts merged with an existing one
system.mem_ctrls2.neitherReadNorWriteReqs            0                       # Number of requests that are neither read nor write
system.mem_ctrls2.perBankRdBursts::0             4292                       # Per bank write bursts
system.mem_ctrls2.perBankRdBursts::1             4781                       # Per bank write bursts
system.mem_ctrls2.perBankRdBursts::2             4434                       # Per bank write bursts
system.mem_ctrls2.perBankRdBursts::3             4798                       # Per bank write bursts
system.mem_ctrls2.perBankRdBursts::4             4535                       # Per bank write bursts
system.mem_ctrls2.perBankRdBursts::5             4626                       # Per bank write bursts
system.mem_ctrls2.perBankRdBursts::6             4418                       # Per bank write bursts
system.mem_ctrls2.perBankRdBursts::7             4419                       # Per bank write bursts
system.mem_ctrls2.perBankRdBursts::8             4357                       # Per bank write bursts
system.mem_ctrls2.perBankRdBursts::9             4653                       # Per bank write bursts
system.mem_ctrls2.perBankRdBursts::10            4395                       # Per bank write bursts
system.mem_ctrls2.perBankRdBursts::11            4652                       # Per bank write bursts
system.mem_ctrls2.perBankRdBursts::12            4240                       # Per bank write bursts
system.mem_ctrls2.perBankRdBursts::13            4073                       # Per bank write bursts
system.mem_ctrls2.perBankRdBursts::14            4263                       # Per bank write bursts
system.mem_ctrls2.perBankRdBursts::15            4403                       # Per bank write bursts
system.mem_ctrls2.perBankWrBursts::0             2703                       # Per bank write bursts
system.mem_ctrls2.perBankWrBursts::1             2712                       # Per bank write bursts
system.mem_ctrls2.perBankWrBursts::2             2688                       # Per bank write bursts
system.mem_ctrls2.perBankWrBursts::3             2789                       # Per bank write bursts
system.mem_ctrls2.perBankWrBursts::4             2697                       # Per bank write bursts
system.mem_ctrls2.perBankWrBursts::5             2820                       # Per bank write bursts
system.mem_ctrls2.perBankWrBursts::6             2646                       # Per bank write bursts
system.mem_ctrls2.perBankWrBursts::7             2734                       # Per bank write bursts
system.mem_ctrls2.perBankWrBursts::8             2629                       # Per bank write bursts
system.mem_ctrls2.perBankWrBursts::9             2811                       # Per bank write bursts
system.mem_ctrls2.perBankWrBursts::10            2656                       # Per bank write bursts
system.mem_ctrls2.perBankWrBursts::11            2599                       # Per bank write bursts
system.mem_ctrls2.perBankWrBursts::12            2535                       # Per bank write bursts
system.mem_ctrls2.perBankWrBursts::13            2548                       # Per bank write bursts
system.mem_ctrls2.perBankWrBursts::14            2715                       # Per bank write bursts
system.mem_ctrls2.perBankWrBursts::15            2654                       # Per bank write bursts
system.mem_ctrls2.numRdRetry                     7698                       # Number of times read queue was full causing retry
system.mem_ctrls2.numWrRetry                     2422                       # Number of times write queue was full causing retry
system.mem_ctrls2.totGap                  38638753500                       # Total gap between requests
system.mem_ctrls2.readPktSize::0                    0                       # Read request sizes (log2)
system.mem_ctrls2.readPktSize::1                    0                       # Read request sizes (log2)
system.mem_ctrls2.readPktSize::2                    0                       # Read request sizes (log2)
system.mem_ctrls2.readPktSize::3                    0                       # Read request sizes (log2)
system.mem_ctrls2.readPktSize::4                    0                       # Read request sizes (log2)
system.mem_ctrls2.readPktSize::5                    0                       # Read request sizes (log2)
system.mem_ctrls2.readPktSize::6                71354                       # Read request sizes (log2)
system.mem_ctrls2.writePktSize::0                   0                       # Write request sizes (log2)
system.mem_ctrls2.writePktSize::1                   0                       # Write request sizes (log2)
system.mem_ctrls2.writePktSize::2                   0                       # Write request sizes (log2)
system.mem_ctrls2.writePktSize::3                   0                       # Write request sizes (log2)
system.mem_ctrls2.writePktSize::4                   0                       # Write request sizes (log2)
system.mem_ctrls2.writePktSize::5                   0                       # Write request sizes (log2)
system.mem_ctrls2.writePktSize::6               42940                       # Write request sizes (log2)
system.mem_ctrls2.rdQLenPdf::0                  42435                       # What read queue length does an incoming req see
system.mem_ctrls2.rdQLenPdf::1                    560                       # What read queue length does an incoming req see
system.mem_ctrls2.rdQLenPdf::2                    343                       # What read queue length does an incoming req see
system.mem_ctrls2.rdQLenPdf::3                    395                       # What read queue length does an incoming req see
system.mem_ctrls2.rdQLenPdf::4                    454                       # What read queue length does an incoming req see
system.mem_ctrls2.rdQLenPdf::5                    475                       # What read queue length does an incoming req see
system.mem_ctrls2.rdQLenPdf::6                    524                       # What read queue length does an incoming req see
system.mem_ctrls2.rdQLenPdf::7                    583                       # What read queue length does an incoming req see
system.mem_ctrls2.rdQLenPdf::8                    641                       # What read queue length does an incoming req see
system.mem_ctrls2.rdQLenPdf::9                    730                       # What read queue length does an incoming req see
system.mem_ctrls2.rdQLenPdf::10                   801                       # What read queue length does an incoming req see
system.mem_ctrls2.rdQLenPdf::11                   835                       # What read queue length does an incoming req see
system.mem_ctrls2.rdQLenPdf::12                   907                       # What read queue length does an incoming req see
system.mem_ctrls2.rdQLenPdf::13                   862                       # What read queue length does an incoming req see
system.mem_ctrls2.rdQLenPdf::14                   863                       # What read queue length does an incoming req see
system.mem_ctrls2.rdQLenPdf::15                   855                       # What read queue length does an incoming req see
system.mem_ctrls2.rdQLenPdf::16                   843                       # What read queue length does an incoming req see
system.mem_ctrls2.rdQLenPdf::17                   821                       # What read queue length does an incoming req see
system.mem_ctrls2.rdQLenPdf::18                   758                       # What read queue length does an incoming req see
system.mem_ctrls2.rdQLenPdf::19                   746                       # What read queue length does an incoming req see
system.mem_ctrls2.rdQLenPdf::20                   723                       # What read queue length does an incoming req see
system.mem_ctrls2.rdQLenPdf::21                   727                       # What read queue length does an incoming req see
system.mem_ctrls2.rdQLenPdf::22                   728                       # What read queue length does an incoming req see
system.mem_ctrls2.rdQLenPdf::23                   688                       # What read queue length does an incoming req see
system.mem_ctrls2.rdQLenPdf::24                   652                       # What read queue length does an incoming req see
system.mem_ctrls2.rdQLenPdf::25                   614                       # What read queue length does an incoming req see
system.mem_ctrls2.rdQLenPdf::26                   598                       # What read queue length does an incoming req see
system.mem_ctrls2.rdQLenPdf::27                   602                       # What read queue length does an incoming req see
system.mem_ctrls2.rdQLenPdf::28                   614                       # What read queue length does an incoming req see
system.mem_ctrls2.rdQLenPdf::29                   637                       # What read queue length does an incoming req see
system.mem_ctrls2.rdQLenPdf::30                   742                       # What read queue length does an incoming req see
system.mem_ctrls2.rdQLenPdf::31                  8583                       # What read queue length does an incoming req see
system.mem_ctrls2.wrQLenPdf::0                   7135                       # What write queue length does an incoming req see
system.mem_ctrls2.wrQLenPdf::1                   7311                       # What write queue length does an incoming req see
system.mem_ctrls2.wrQLenPdf::2                   7427                       # What write queue length does an incoming req see
system.mem_ctrls2.wrQLenPdf::3                   7515                       # What write queue length does an incoming req see
system.mem_ctrls2.wrQLenPdf::4                   7609                       # What write queue length does an incoming req see
system.mem_ctrls2.wrQLenPdf::5                   1142                       # What write queue length does an incoming req see
system.mem_ctrls2.wrQLenPdf::6                   1299                       # What write queue length does an incoming req see
system.mem_ctrls2.wrQLenPdf::7                   3502                       # What write queue length does an incoming req see
system.mem_ctrls2.bytesPerActivate::samples        28773                       # Bytes accessed per row activation
system.mem_ctrls2.bytesPerActivate::mean   254.167171                       # Bytes accessed per row activation
system.mem_ctrls2.bytesPerActivate::gmean   175.605876                       # Bytes accessed per row activation
system.mem_ctrls2.bytesPerActivate::stdev   235.750930                       # Bytes accessed per row activation
system.mem_ctrls2.bytesPerActivate::0-127         9491     32.99%     32.99% # Bytes accessed per row activation
system.mem_ctrls2.bytesPerActivate::128-255         6403     22.25%     55.24% # Bytes accessed per row activation
system.mem_ctrls2.bytesPerActivate::256-383         8127     28.25%     83.48% # Bytes accessed per row activation
system.mem_ctrls2.bytesPerActivate::384-511         1197      4.16%     87.64% # Bytes accessed per row activation
system.mem_ctrls2.bytesPerActivate::512-639          939      3.26%     90.91% # Bytes accessed per row activation
system.mem_ctrls2.bytesPerActivate::640-767          686      2.38%     93.29% # Bytes accessed per row activation
system.mem_ctrls2.bytesPerActivate::768-895          508      1.77%     95.06% # Bytes accessed per row activation
system.mem_ctrls2.bytesPerActivate::896-1023          427      1.48%     96.54% # Bytes accessed per row activation
system.mem_ctrls2.bytesPerActivate::1024-1151          995      3.46%    100.00% # Bytes accessed per row activation
system.mem_ctrls2.bytesPerActivate::total        28773                       # Bytes accessed per row activation
system.mem_ctrls2.rdPerTurnAround::samples         7381                       # Reads before turning the bus around for writes
system.mem_ctrls2.rdPerTurnAround::mean      9.659802                       # Reads before turning the bus around for writes
system.mem_ctrls2.rdPerTurnAround::stdev    38.687979                       # Reads before turning the bus around for writes
system.mem_ctrls2.rdPerTurnAround::0-127         7376     99.93%     99.93% # Reads before turning the bus around for writes
system.mem_ctrls2.rdPerTurnAround::128-255            3      0.04%     99.97% # Reads before turning the bus around for writes
system.mem_ctrls2.rdPerTurnAround::1152-1279            1      0.01%     99.99% # Reads before turning the bus around for writes
system.mem_ctrls2.rdPerTurnAround::2816-2943            1      0.01%    100.00% # Reads before turning the bus around for writes
system.mem_ctrls2.rdPerTurnAround::total         7381                       # Reads before turning the bus around for writes
system.mem_ctrls2.wrPerTurnAround::samples         7381                       # Writes before turning the bus around for reads
system.mem_ctrls2.wrPerTurnAround::mean      5.817098                       # Writes before turning the bus around for reads
system.mem_ctrls2.wrPerTurnAround::gmean     5.507424                       # Writes before turning the bus around for reads
system.mem_ctrls2.wrPerTurnAround::stdev     2.563425                       # Writes before turning the bus around for reads
system.mem_ctrls2.wrPerTurnAround::4-7           6665     90.30%     90.30% # Writes before turning the bus around for reads
system.mem_ctrls2.wrPerTurnAround::8-11           256      3.47%     93.77% # Writes before turning the bus around for reads
system.mem_ctrls2.wrPerTurnAround::12-15          158      2.14%     95.91% # Writes before turning the bus around for reads
system.mem_ctrls2.wrPerTurnAround::16-19          302      4.09%    100.00% # Writes before turning the bus around for reads
system.mem_ctrls2.wrPerTurnAround::total         7381                       # Writes before turning the bus around for reads
system.mem_ctrls2.totQLat                  5671836352                       # Total ticks spent queuing
system.mem_ctrls2.totMemAccLat             7009442602                       # Total ticks spent from burst creation until serviced by the DRAM
system.mem_ctrls2.totBusLat                 356695000                       # Total ticks spent in databus transfers
system.mem_ctrls2.avgQLat                    79505.41                       # Average queueing delay per DRAM burst
system.mem_ctrls2.avgBusLat                   5000.00                       # Average bus latency per DRAM burst
system.mem_ctrls2.avgMemAccLat               98255.41                       # Average memory access latency per DRAM burst
system.mem_ctrls2.avgRdBW                      118.16                       # Average DRAM read bandwidth in MiByte/s
system.mem_ctrls2.avgWrBW                       71.12                       # Average achieved write bandwidth in MiByte/s
system.mem_ctrls2.avgRdBWSys                   118.19                       # Average system read bandwidth in MiByte/s
system.mem_ctrls2.avgWrBWSys                    71.12                       # Average system write bandwidth in MiByte/s
system.mem_ctrls2.peakBW                     12800.00                       # Theoretical peak bandwidth in MiByte/s
system.mem_ctrls2.busUtil                        1.48                       # Data bus utilization in percentage
system.mem_ctrls2.busUtilRead                    0.92                       # Data bus utilization in percentage for reads
system.mem_ctrls2.busUtilWrite                   0.56                       # Data bus utilization in percentage for writes
system.mem_ctrls2.avgRdQLen                      1.16                       # Average read queue length when enqueuing
system.mem_ctrls2.avgWrQLen                      2.88                       # Average write queue length when enqueuing
system.mem_ctrls2.readRowHits                   55839                       # Number of row buffer hits during reads
system.mem_ctrls2.writeRowHits                  29660                       # Number of row buffer hits during writes
system.mem_ctrls2.readRowHitRate                78.27                       # Row buffer hit rate for reads
system.mem_ctrls2.writeRowHitRate               69.07                       # Row buffer hit rate for writes
system.mem_ctrls2.avgGap                    338064.58                       # Average gap between requests
system.mem_ctrls2.pageHitRate                   74.82                       # Row buffer hit rate, read and write combined
system.mem_ctrls2.memoryStateTime::IDLE   10523111000                       # Time in different power states
system.mem_ctrls2.memoryStateTime::REF     1290120000                       # Time in different power states
system.mem_ctrls2.memoryStateTime::PRE_PDN            0                       # Time in different power states
system.mem_ctrls2.memoryStateTime::ACT    26822619000                       # Time in different power states
system.mem_ctrls2.memoryStateTime::ACT_PDN            0                       # Time in different power states
system.mem_ctrls2.actEnergy::0              113173200                       # Energy for activate commands per rank (pJ)
system.mem_ctrls2.actEnergy::1              104335560                       # Energy for activate commands per rank (pJ)
system.mem_ctrls2.preEnergy::0               61751250                       # Energy for precharge commands per rank (pJ)
system.mem_ctrls2.preEnergy::1               56929125                       # Energy for precharge commands per rank (pJ)
system.mem_ctrls2.readEnergy::0             283132200                       # Energy for read commands per rank (pJ)
system.mem_ctrls2.readEnergy::1             273218400                       # Energy for read commands per rank (pJ)
system.mem_ctrls2.writeEnergy::0            141192720                       # Energy for write commands per rank (pJ)
system.mem_ctrls2.writeEnergy::1            137032560                       # Energy for write commands per rank (pJ)
system.mem_ctrls2.refreshEnergy::0         2523474720                       # Energy for refresh commands per rank (pJ)
system.mem_ctrls2.refreshEnergy::1         2523474720                       # Energy for refresh commands per rank (pJ)
system.mem_ctrls2.actBackEnergy::0        13979221785                       # Energy for active background per rank (pJ)
system.mem_ctrls2.actBackEnergy::1        13335996735                       # Energy for active background per rank (pJ)
system.mem_ctrls2.preBackEnergy::0        10918920750                       # Energy for precharge background per rank (pJ)
system.mem_ctrls2.preBackEnergy::1        11483153250                       # Energy for precharge background per rank (pJ)
system.mem_ctrls2.totalEnergy::0          28020866625                       # Total energy per rank (pJ)
system.mem_ctrls2.totalEnergy::1          27914140350                       # Total energy per rank (pJ)
system.mem_ctrls2.averagePower::0          725.259168                       # Core power per rank (mW)
system.mem_ctrls2.averagePower::1          722.496791                       # Core power per rank (mW)
system.mem_ctrls3.bytes_read::ruby.dir_cntrl3      4548544                       # Number of bytes read from this memory
system.mem_ctrls3.bytes_read::total           4548544                       # Number of bytes read from this memory
system.mem_ctrls3.bytes_written::ruby.dir_cntrl3      2743616                       # Number of bytes written to this memory
system.mem_ctrls3.bytes_written::total        2743616                       # Number of bytes written to this memory
system.mem_ctrls3.num_reads::ruby.dir_cntrl3        71071                       # Number of read requests responded to by this memory
system.mem_ctrls3.num_reads::total              71071                       # Number of read requests responded to by this memory
system.mem_ctrls3.num_writes::ruby.dir_cntrl3        42869                       # Number of write requests responded to by this memory
system.mem_ctrls3.num_writes::total             42869                       # Number of write requests responded to by this memory
system.mem_ctrls3.bw_read::ruby.dir_cntrl3    117718140                       # Total read bandwidth from this memory (bytes/s)
system.mem_ctrls3.bw_read::total            117718140                       # Total read bandwidth from this memory (bytes/s)
system.mem_ctrls3.bw_write::ruby.dir_cntrl3     71005881                       # Write bandwidth from this memory (bytes/s)
system.mem_ctrls3.bw_write::total            71005881                       # Write bandwidth from this memory (bytes/s)
system.mem_ctrls3.bw_total::ruby.dir_cntrl3    188724021                       # Total bandwidth to/from this memory (bytes/s)
system.mem_ctrls3.bw_total::total           188724021                       # Total bandwidth to/from this memory (bytes/s)
system.mem_ctrls3.readReqs                      71072                       # Number of read requests accepted
system.mem_ctrls3.writeReqs                     42869                       # Number of write requests accepted
system.mem_ctrls3.readBursts                    71072                       # Number of DRAM read bursts, including those serviced by the write queue
system.mem_ctrls3.writeBursts                   42869                       # Number of DRAM write bursts, including those merged in the write queue
system.mem_ctrls3.bytesReadDRAM               4548160                       # Total number of bytes read from DRAM
system.mem_ctrls3.bytesReadWrQ                    448                       # Total number of bytes read from write queue
system.mem_ctrls3.bytesWritten                2743424                       # Total number of bytes written to DRAM
system.mem_ctrls3.bytesReadSys                4548608                       # Total read bytes from the system interface side
system.mem_ctrls3.bytesWrittenSys             2743616                       # Total written bytes from the system interface side
system.mem_ctrls3.servicedByWrQ                     7                       # Number of DRAM read bursts serviced by the write queue
system.mem_ctrls3.mergedWrBursts                    0                       # Number of DRAM write bursts merged with an existing one
system.mem_ctrls3.neitherReadNorWriteReqs            0                       # Number of requests that are neither read nor write
system.mem_ctrls3.perBankRdBursts::0             4281                       # Per bank write bursts
system.mem_ctrls3.perBankRdBursts::1             4737                       # Per bank write bursts
system.mem_ctrls3.perBankRdBursts::2             4407                       # Per bank write bursts
system.mem_ctrls3.perBankRdBursts::3             4759                       # Per bank write bursts
system.mem_ctrls3.perBankRdBursts::4             4487                       # Per bank write bursts
system.mem_ctrls3.perBankRdBursts::5             4595                       # Per bank write bursts
system.mem_ctrls3.perBankRdBursts::6             4405                       # Per bank write bursts
system.mem_ctrls3.perBankRdBursts::7             4417                       # Per bank write bursts
system.mem_ctrls3.perBankRdBursts::8             4365                       # Per bank write bursts
system.mem_ctrls3.perBankRdBursts::9             4633                       # Per bank write bursts
system.mem_ctrls3.perBankRdBursts::10            4406                       # Per bank write bursts
system.mem_ctrls3.perBankRdBursts::11            4620                       # Per bank write bursts
system.mem_ctrls3.perBankRdBursts::12            4224                       # Per bank write bursts
system.mem_ctrls3.perBankRdBursts::13            4052                       # Per bank write bursts
system.mem_ctrls3.perBankRdBursts::14            4276                       # Per bank write bursts
system.mem_ctrls3.perBankRdBursts::15            4401                       # Per bank write bursts
system.mem_ctrls3.perBankWrBursts::0             2708                       # Per bank write bursts
system.mem_ctrls3.perBankWrBursts::1             2700                       # Per bank write bursts
system.mem_ctrls3.perBankWrBursts::2             2689                       # Per bank write bursts
system.mem_ctrls3.perBankWrBursts::3             2773                       # Per bank write bursts
system.mem_ctrls3.perBankWrBursts::4             2690                       # Per bank write bursts
system.mem_ctrls3.perBankWrBursts::5             2816                       # Per bank write bursts
system.mem_ctrls3.perBankWrBursts::6             2639                       # Per bank write bursts
system.mem_ctrls3.perBankWrBursts::7             2726                       # Per bank write bursts
system.mem_ctrls3.perBankWrBursts::8             2625                       # Per bank write bursts
system.mem_ctrls3.perBankWrBursts::9             2804                       # Per bank write bursts
system.mem_ctrls3.perBankWrBursts::10            2651                       # Per bank write bursts
system.mem_ctrls3.perBankWrBursts::11            2605                       # Per bank write bursts
system.mem_ctrls3.perBankWrBursts::12            2530                       # Per bank write bursts
system.mem_ctrls3.perBankWrBursts::13            2555                       # Per bank write bursts
system.mem_ctrls3.perBankWrBursts::14            2707                       # Per bank write bursts
system.mem_ctrls3.perBankWrBursts::15            2648                       # Per bank write bursts
system.mem_ctrls3.numRdRetry                    11159                       # Number of times read queue was full causing retry
system.mem_ctrls3.numWrRetry                     2742                       # Number of times write queue was full causing retry
system.mem_ctrls3.totGap                  38638536000                       # Total gap between requests
system.mem_ctrls3.readPktSize::0                    0                       # Read request sizes (log2)
system.mem_ctrls3.readPktSize::1                    0                       # Read request sizes (log2)
system.mem_ctrls3.readPktSize::2                    0                       # Read request sizes (log2)
system.mem_ctrls3.readPktSize::3                    0                       # Read request sizes (log2)
system.mem_ctrls3.readPktSize::4                    0                       # Read request sizes (log2)
system.mem_ctrls3.readPktSize::5                    0                       # Read request sizes (log2)
system.mem_ctrls3.readPktSize::6                71072                       # Read request sizes (log2)
system.mem_ctrls3.writePktSize::0                   0                       # Write request sizes (log2)
system.mem_ctrls3.writePktSize::1                   0                       # Write request sizes (log2)
system.mem_ctrls3.writePktSize::2                   0                       # Write request sizes (log2)
system.mem_ctrls3.writePktSize::3                   0                       # Write request sizes (log2)
system.mem_ctrls3.writePktSize::4                   0                       # Write request sizes (log2)
system.mem_ctrls3.writePktSize::5                   0                       # Write request sizes (log2)
system.mem_ctrls3.writePktSize::6               42869                       # Write request sizes (log2)
system.mem_ctrls3.rdQLenPdf::0                  42198                       # What read queue length does an incoming req see
system.mem_ctrls3.rdQLenPdf::1                    601                       # What read queue length does an incoming req see
system.mem_ctrls3.rdQLenPdf::2                    328                       # What read queue length does an incoming req see
system.mem_ctrls3.rdQLenPdf::3                    341                       # What read queue length does an incoming req see
system.mem_ctrls3.rdQLenPdf::4                    357                       # What read queue length does an incoming req see
system.mem_ctrls3.rdQLenPdf::5                    417                       # What read queue length does an incoming req see
system.mem_ctrls3.rdQLenPdf::6                    478                       # What read queue length does an incoming req see
system.mem_ctrls3.rdQLenPdf::7                    527                       # What read queue length does an incoming req see
system.mem_ctrls3.rdQLenPdf::8                    557                       # What read queue length does an incoming req see
system.mem_ctrls3.rdQLenPdf::9                    566                       # What read queue length does an incoming req see
system.mem_ctrls3.rdQLenPdf::10                   579                       # What read queue length does an incoming req see
system.mem_ctrls3.rdQLenPdf::11                   572                       # What read queue length does an incoming req see
system.mem_ctrls3.rdQLenPdf::12                   581                       # What read queue length does an incoming req see
system.mem_ctrls3.rdQLenPdf::13                   570                       # What read queue length does an incoming req see
system.mem_ctrls3.rdQLenPdf::14                   634                       # What read queue length does an incoming req see
system.mem_ctrls3.rdQLenPdf::15                   617                       # What read queue length does an incoming req see
system.mem_ctrls3.rdQLenPdf::16                   595                       # What read queue length does an incoming req see
system.mem_ctrls3.rdQLenPdf::17                   650                       # What read queue length does an incoming req see
system.mem_ctrls3.rdQLenPdf::18                   631                       # What read queue length does an incoming req see
system.mem_ctrls3.rdQLenPdf::19                   628                       # What read queue length does an incoming req see
system.mem_ctrls3.rdQLenPdf::20                   626                       # What read queue length does an incoming req see
system.mem_ctrls3.rdQLenPdf::21                   572                       # What read queue length does an incoming req see
system.mem_ctrls3.rdQLenPdf::22                   609                       # What read queue length does an incoming req see
system.mem_ctrls3.rdQLenPdf::23                   511                       # What read queue length does an incoming req see
system.mem_ctrls3.rdQLenPdf::24                   574                       # What read queue length does an incoming req see
[...]
system.ruby.L2Cache_Controller.IS.Mem_Data::total        12351                      
system.ruby.L2Cache_Controller.IM.L1_GETX |           1    100.00%    100.00% |           0      0.00%    100.00% |           0      0.00%    100.00% |           0      0.00%    100.00% |           0      0.00%    100.00% |           0      0.00%    100.00% |           0      0.00%    100.00% |           0      0.00%    100.00% |           0      0.00%    100.00% |           0      0.00%    100.00% |           0      0.00%    100.00% |           0      0.00%    100.00% |           0      0.00%    100.00% |           0      0.00%    100.00% |           0      0.00%    100.00% |           0      0.00%    100.00% |           0      0.00%    100.00% |           0      0.00%    100.00% |           0      0.00%    100.00% |           0      0.00%    100.00% |           0      0.00%    100.00% |           0      0.00%    100.00% |           0      0.00%    100.00% |           0      0.00%    100.00% |           0      0.00%    100.00% |           0      0.00%    100.00% |           0      0.00%    100.00% |           0      0.00%    100.00% |           0      0.00%    100.00% |           0      0.00%    100.00% |           0      0.00%    100.00% |           0      0.00%    100.00%
system.ruby.L2Cache_Controller.IM.L1_GETX::total            1                      
system.ruby.L2Cache_Controller.IM.Mem_Data |        4705      3.12%      3.12% |        4697      3.12%      6.24% |        4706      3.12%      9.37% |        4713      3.13%     12.50% |        4704      3.12%     15.62% |        4711      3.13%     18.75% |        4710      3.13%     21.88% |        4694      3.12%     24.99% |        4710      3.13%     28.12% |        4711      3.13%     31.25% |        4696      3.12%     34.37% |        4715      3.13%     37.50% |        4700      3.12%     40.62% |        4703      3.12%     43.74% |        4702      3.12%     46.86% |        4698      3.12%     49.98% |        4716      3.13%     53.12% |        4710      3.13%     56.24% |        4712      3.13%     59.37% |        4706      3.12%     62.50% |        4709      3.13%     65.62% |        4722      3.14%     68.76% |        4701      3.12%     71.88% |        4707      3.13%     75.01% |        4720      3.13%     78.14% |        4710      3.13%     81.27% |        4716      3.13%     84.40% |        4702      3.12%     87.52% |        4703      3.12%     90.64% |        4699      3.12%     93.76% |        4703      3.12%     96.89% |        4688      3.11%    100.00%
system.ruby.L2Cache_Controller.IM.Mem_Data::total       150599                      
system.ruby.L2Cache_Controller.SS_MB.Exclusive_Unblock |           3      6.82%      6.82% |           6     13.64%     20.45% |           3      6.82%     27.27% |           4      9.09%     36.36% |           0      0.00%     36.36% |           0      0.00%     36.36% |           0      0.00%     36.36% |           0      0.00%     36.36% |           0      0.00%     36.36% |           0      0.00%     36.36% |           0      0.00%     36.36% |           0      0.00%     36.36% |           3      6.82%     43.18% |           0      0.00%     43.18% |           4      9.09%     52.27% |           0      0.00%     52.27% |           1      2.27%     54.55% |           0      0.00%     54.55% |          11     25.00%     79.55% |           2      4.55%     84.09% |           0      0.00%     84.09% |           1      2.27%     86.36% |           0      0.00%     86.36% |           1      2.27%     88.64% |           1      2.27%     90.91% |           0      0.00%     90.91% |           1      2.27%     93.18% |           2      4.55%     97.73% |           1      2.27%    100.00% |           0      0.00%    100.00% |           0      0.00%    100.00% |           0      0.00%    100.00%
system.ruby.L2Cache_Controller.SS_MB.Exclusive_Unblock::total           44                      
system.ruby.L2Cache_Controller.MT_MB.L1_PUTX |           0      0.00%      0.00% |           0      0.00%      0.00% |           0      0.00%      0.00% |           0      0.00%      0.00% |           0      0.00%      0.00% |           0      0.00%      0.00% |           0      0.00%      0.00% |           0      0.00%      0.00% |           0      0.00%      0.00% |           0      0.00%      0.00% |           0      0.00%      0.00% |           0      0.00%      0.00% |           0      0.00%      0.00% |           0      0.00%      0.00% |           0      0.00%      0.00% |           0      0.00%      0.00% |           1    100.00%    100.00% |           0      0.00%    100.00% |           0      0.00%    100.00% |           0      0.00%    100.00% |           0      0.00%    100.00% |           0      0.00%    100.00% |           0      0.00%    100.00% |           0      0.00%    100.00% |           0      0.00%    100.00% |           0      0.00%    100.00% |           0      0.00%    100.00% |           0      0.00%    100.00% |           0      0.00%    100.00% |           0      0.00%    100.00% |           0      0.00%    100.00% |           0      0.00%    100.00%
system.ruby.L2Cache_Controller.MT_MB.L1_PUTX::total            1                      
system.ruby.L2Cache_Controller.MT_MB.Exclusive_Unblock |       60438     12.24%     12.24% |       15538      3.15%     15.38% |       12747      2.58%     17.96% |       14800      3.00%     20.96% |       13333      2.70%     23.66% |       12717      2.57%     26.23% |       12240      2.48%     28.71% |       12902      2.61%     31.32% |       13097      2.65%     33.97% |       12757      2.58%     36.56% |       15510      3.14%     39.70% |       15760      3.19%     42.89% |       14126      2.86%     45.75% |       13214      2.68%     48.42% |       11997      2.43%     50.85% |       12462      2.52%     53.37% |       13998      2.83%     56.21% |       12805      2.59%     58.80% |       13229      2.68%     61.48% |       14224      2.88%     64.36% |       14904      3.02%     67.37% |       15893      3.22%     70.59% |       13720      2.78%     73.37% |       13754      2.78%     76.15% |       13835      2.80%     78.95% |       13398      2.71%     81.67% |       13249      2.68%     84.35% |       12958      2.62%     86.97% |       15562      3.15%     90.12% |       13986      2.83%     92.95% |       16356      3.31%     96.27% |       18447      3.73%    100.00%
system.ruby.L2Cache_Controller.MT_MB.Exclusive_Unblock::total       493956                      
system.ruby.L2Cache_Controller.MT_IIB.L1_PUTX |           1    100.00%    100.00% |           0      0.00%    100.00% |           0      0.00%    100.00% |           0      0.00%    100.00% |           0      0.00%    100.00% |           0      0.00%    100.00% |           0      0.00%    100.00% |           0      0.00%    100.00% |           0      0.00%    100.00% |           0      0.00%    100.00% |           0      0.00%    100.00% |           0      0.00%    100.00% |           0      0.00%    100.00% |           0      0.00%    100.00% |           0      0.00%    100.00% |           0      0.00%    100.00% |           0      0.00%    100.00% |           0      0.00%    100.00% |           0      0.00%    100.00% |           0      0.00%    100.00% |           0      0.00%    100.00% |           0      0.00%    100.00% |           0      0.00%    100.00% |           0      0.00%    100.00% |           0      0.00%    100.00% |           0      0.00%    100.00% |           0      0.00%    100.00% |           0      0.00%    100.00% |           0      0.00%    100.00% |           0      0.00%    100.00% |           0      0.00%    100.00% |           0      0.00%    100.00%
system.ruby.L2Cache_Controller.MT_IIB.L1_PUTX::total            1                      
system.ruby.L2Cache_Controller.MT_IIB.WB_Data |           0      0.00%      0.00% |           1     20.00%     20.00% |           1     20.00%     40.00% |           1     20.00%     60.00% |           0      0.00%     60.00% |           0      0.00%     60.00% |           1     20.00%     80.00% |           0      0.00%     80.00% |           0      0.00%     80.00% |           1     20.00%    100.00% |           0      0.00%    100.00% |           0      0.00%    100.00% |           0      0.00%    100.00% |           0      0.00%    100.00% |           0      0.00%    100.00% |           0      0.00%    100.00% |           0      0.00%    100.00% |           0      0.00%    100.00% |           0      0.00%    100.00% |           0      0.00%    100.00% |           0      0.00%    100.00% |           0      0.00%    100.00% |           0      0.00%    100.00% |           0      0.00%    100.00% |           0      0.00%    100.00% |           0      0.00%    100.00% |           0      0.00%    100.00% |           0      0.00%    100.00% |           0      0.00%    100.00% |           0      0.00%    100.00% |           0      0.00%    100.00% |           0      0.00%    100.00%
system.ruby.L2Cache_Controller.MT_IIB.WB_Data::total            5                      
system.ruby.L2Cache_Controller.MT_IIB.WB_Data_clean |        2915     50.54%     50.54% |           0      0.00%     50.54% |           0      0.00%     50.54% |           0      0.00%     50.54% |           0      0.00%     50.54% |           0      0.00%     50.54% |           0      0.00%     50.54% |           0      0.00%     50.54% |           0      0.00%     50.54% |           0      0.00%     50.54% |           0      0.00%     50.54% |           0      0.00%     50.54% |           0      0.00%     50.54% |           0      0.00%     50.54% |           0      0.00%     50.54% |           0      0.00%     50.54% |        2853     49.46%    100.00% |           0      0.00%    100.00% |           0      0.00%    100.00% |           0      0.00%    100.00% |           0      0.00%    100.00% |           0      0.00%    100.00% |           0      0.00%    100.00% |           0      0.00%    100.00% |           0      0.00%    100.00% |           0      0.00%    100.00% |           0      0.00%    100.00% |           0      0.00%    100.00% |           0      0.00%    100.00% |           0      0.00%    100.00% |           0      0.00%    100.00% |           0      0.00%    100.00%
system.ruby.L2Cache_Controller.MT_IIB.WB_Data_clean::total         5768                      
system.ruby.L2Cache_Controller.MT_IIB.Unblock |         116     37.54%     37.54% |           0      0.00%     37.54% |           0      0.00%     37.54% |           0      0.00%     37.54% |           0      0.00%     37.54% |           0      0.00%     37.54% |           0      0.00%     37.54% |           0      0.00%     37.54% |           0      0.00%     37.54% |           0      0.00%     37.54% |           0      0.00%     37.54% |           0      0.00%     37.54% |           0      0.00%     37.54% |           0      0.00%     37.54% |           0      0.00%     37.54% |           0      0.00%     37.54% |         193     62.46%    100.00% |           0      0.00%    100.00% |           0      0.00%    100.00% |           0      0.00%    100.00% |           0      0.00%    100.00% |           0      0.00%    100.00% |           0      0.00%    100.00% |           0      0.00%    100.00% |           0      0.00%    100.00% |           0      0.00%    100.00% |           0      0.00%    100.00% |           0      0.00%    100.00% |           0      0.00%    100.00% |           0      0.00%    100.00% |           0      0.00%    100.00% |           0      0.00%    100.00%
system.ruby.L2Cache_Controller.MT_IIB.Unblock::total          309                      
system.ruby.L2Cache_Controller.MT_IB.WB_Data_clean |         116     37.54%     37.54% |           0      0.00%     37.54% |           0      0.00%     37.54% |           0      0.00%     37.54% |           0      0.00%     37.54% |           0      0.00%     37.54% |           0      0.00%     37.54% |           0      0.00%     37.54% |           0      0.00%     37.54% |           0      0.00%     37.54% |           0      0.00%     37.54% |           0      0.00%     37.54% |           0      0.00%     37.54% |           0      0.00%     37.54% |           0      0.00%     37.54% |           0      0.00%     37.54% |         193     62.46%    100.00% |           0      0.00%    100.00% |           0      0.00%    100.00% |           0      0.00%    100.00% |           0      0.00%    100.00% |           0      0.00%    100.00% |           0      0.00%    100.00% |           0      0.00%    100.00% |           0      0.00%    100.00% |           0      0.00%    100.00% |           0      0.00%    100.00% |           0      0.00%    100.00% |           0      0.00%    100.00% |           0      0.00%    100.00% |           0      0.00%    100.00% |           0      0.00%    100.00%
system.ruby.L2Cache_Controller.MT_IB.WB_Data_clean::total          309                      
system.ruby.L2Cache_Controller.MT_SB.Unblock |        2915     50.49%     50.49% |           1      0.02%     50.51% |           1      0.02%     50.53% |           1      0.02%     50.55% |           0      0.00%     50.55% |           0      0.00%     50.55% |           1      0.02%     50.56% |           0      0.00%     50.56% |           0      0.00%     50.56% |           1      0.02%     50.58% |           0      0.00%     50.58% |           0      0.00%     50.58% |           0      0.00%     50.58% |           0      0.00%     50.58% |           0      0.00%     50.58% |           0      0.00%     50.58% |        2853     49.42%    100.00% |           0      0.00%    100.00% |           0      0.00%    100.00% |           0      0.00%    100.00% |           0      0.00%    100.00% |           0      0.00%    100.00% |           0      0.00%    100.00% |           0      0.00%    100.00% |           0      0.00%    100.00% |           0      0.00%    100.00% |           0      0.00%    100.00% |           0      0.00%    100.00% |           0      0.00%    100.00% |           0      0.00%    100.00% |           0      0.00%    100.00% |           0      0.00%    100.00%
system.ruby.L2Cache_Controller.MT_SB.Unblock::total         5773                      
system.ruby.SimicsNetworkPortInterface_Controller.MessageSend |       17075     10.35%     10.35% |       82451     50.00%     60.35% |        2142      1.30%     61.65% |        2215      1.34%     63.00% |        2028      1.23%     64.23% |        2276      1.38%     65.61% |        2105      1.28%     66.88% |        2346      1.42%     68.31% |        2129      1.29%     69.60% |        2174      1.32%     70.92% |        2102      1.27%     72.19% |        2103      1.28%     73.47% |        2082      1.26%     74.73% |        2275      1.38%     76.11% |        2184      1.32%     77.43% |        2306      1.40%     78.83% |        2165      1.31%     80.14% |        2126      1.29%     81.43% |        2156      1.31%     82.74% |        2184      1.32%     84.06% |        2162      1.31%     85.38% |        2307      1.40%     86.77% |        2238      1.36%     88.13% |        2134      1.29%     89.43% |        2024      1.23%     90.65% |        2071      1.26%     91.91% |        2247      1.36%     93.27% |        2202      1.34%     94.61% |        2279      1.38%     95.99% |        2261      1.37%     97.36% |        2125      1.29%     98.65% |        2228      1.35%    100.00%
system.ruby.SimicsNetworkPortInterface_Controller.MessageSend::total       164902                      
system.ruby.SimicsNetworkPortInterface_Controller.MessageRecv |       17075     10.35%     10.35% |       82451     50.00%     60.35% |        2142      1.30%     61.65% |        2215      1.34%     63.00% |        2028      1.23%     64.23% |        2276      1.38%     65.61% |        2105      1.28%     66.88% |        2346      1.42%     68.31% |        2129      1.29%     69.60% |        2174      1.32%     70.92% |        2102      1.27%     72.19% |        2103      1.28%     73.47% |        2082      1.26%     74.73% |        2275      1.38%     76.11% |        2184      1.32%     77.43% |        2306      1.40%     78.83% |        2165      1.31%     80.14% |        2126      1.29%     81.43% |        2156      1.31%     82.74% |        2184      1.32%     84.06% |        2162      1.31%     85.38% |        2307      1.40%     86.77% |        2238      1.36%     88.13% |        2134      1.29%     89.43% |        2024      1.23%     90.65% |        2071      1.26%     91.91% |        2247      1.36%     93.27% |        2202      1.34%     94.61% |        2279      1.38%     95.99% |        2261      1.37%     97.36% |        2125      1.29%     98.65% |        2228      1.35%    100.00%
system.ruby.SimicsNetworkPortInterface_Controller.MessageRecv::total       164902                      
system.ruby.SimicsNetworkPortInterface_Controller.A.MessageSend |       17075     10.35%     10.35% |       82451     50.00%     60.35% |        2142      1.30%     61.65% |        2215      1.34%     63.00% |        2028      1.23%     64.23% |        2276      1.38%     65.61% |        2105      1.28%     66.88% |        2346      1.42%     68.31% |        2129      1.29%     69.60% |        2174      1.32%     70.92% |        2102      1.27%     72.19% |        2103      1.28%     73.47% |        2082      1.26%     74.73% |        2275      1.38%     76.11% |        2184      1.32%     77.43% |        2306      1.40%     78.83% |        2165      1.31%     80.14% |        2126      1.29%     81.43% |        2156      1.31%     82.74% |        2184      1.32%     84.06% |        2162      1.31%     85.38% |        2307      1.40%     86.77% |        2238      1.36%     88.13% |        2134      1.29%     89.43% |        2024      1.23%     90.65% |        2071      1.26%     91.91% |        2247      1.36%     93.27% |        2202      1.34%     94.61% |        2279      1.38%     95.99% |        2261      1.37%     97.36% |        2125      1.29%     98.65% |        2228      1.35%    100.00%
system.ruby.SimicsNetworkPortInterface_Controller.A.MessageSend::total       164902                      
system.ruby.SimicsNetworkPortInterface_Controller.A.MessageRecv |       17075     10.35%     10.35% |       82451     50.00%     60.35% |        2142      1.30%     61.65% |        2215      1.34%     63.00% |        2028      1.23%     64.23% |        2276      1.38%     65.61% |        2105      1.28%     66.88% |        2346      1.42%     68.31% |        2129      1.29%     69.60% |        2174      1.32%     70.92% |        2102      1.27%     72.19% |        2103      1.28%     73.47% |        2082      1.26%     74.73% |        2275      1.38%     76.11% |        2184      1.32%     77.43% |        2306      1.40%     78.83% |        2165      1.31%     80.14% |        2126      1.29%     81.43% |        2156      1.31%     82.74% |        2184      1.32%     84.06% |        2162      1.31%     85.38% |        2307      1.40%     86.77% |        2238      1.36%     88.13% |        2134      1.29%     89.43% |        2024      1.23%     90.65% |        2071      1.26%     91.91% |        2247      1.36%     93.27% |        2202      1.34%     94.61% |        2279      1.38%     95.99% |        2261      1.37%     97.36% |        2125      1.29%     98.65% |        2228      1.35%    100.00%
system.ruby.SimicsNetworkPortInterface_Controller.A.MessageRecv::total       164902                      
system.switch_cpus.kern.inst.arm                    0                       # number of arm instructions executed
system.switch_cpus.kern.inst.quiesce                0                       # number of quiesce instructions executed

---------- End Simulation Statistics   ----------
