
---------- Begin Simulation Statistics ----------
sim_seconds                                  0.122183                       # Number of seconds simulated
sim_ticks                                122182645000                       # Number of ticks simulated
final_tick                               5298350723500                       # Number of ticks from beginning of simulation (restored from checkpoints and never reset)
sim_freq                                 1000000000000                       # Frequency of simulated ticks
host_inst_rate                                  17870                       # Simulator instruction rate (inst/s)
host_op_rate                                    31428                       # Simulator op (including micro ops) rate (op/s)
host_tick_rate                               37890905                       # Simulator tick rate (ticks/s)
host_mem_usage                                6328844                       # Number of bytes of host memory used
host_seconds                                  3224.59                       # Real time elapsed on the host
sim_insts                                    57624265                       # Number of instructions simulated
sim_ops                                     101342435                       # Number of ops (including micro ops) simulated
system.voltage_domain.voltage                       1                       # Voltage in Volts
system.clk_domain.clock                           500                       # Clock period in ticks
system.mem_ctrls0.bytes_read::ruby.dir_cntrl0     55706432                       # Number of bytes read from this memory
system.mem_ctrls0.bytes_read::total          55706432                       # Number of bytes read from this memory
system.mem_ctrls0.bytes_written::ruby.dir_cntrl0     23219072                       # Number of bytes written to this memory
system.mem_ctrls0.bytes_written::total       23219072                       # Number of bytes written to this memory
system.mem_ctrls0.num_reads::ruby.dir_cntrl0       870413                       # Number of read requests responded to by this memory
system.mem_ctrls0.num_reads::total             870413                       # Number of read requests responded to by this memory
system.mem_ctrls0.num_writes::ruby.dir_cntrl0       362798                       # Number of write requests responded to by this memory
system.mem_ctrls0.num_writes::total            362798                       # Number of write requests responded to by this memory
system.mem_ctrls0.bw_read::ruby.dir_cntrl0    455927534                       # Total read bandwidth from this memory (bytes/s)
system.mem_ctrls0.bw_read::total            455927534                       # Total read bandwidth from this memory (bytes/s)
system.mem_ctrls0.bw_write::ruby.dir_cntrl0    190035762                       # Write bandwidth from this memory (bytes/s)
system.mem_ctrls0.bw_write::total           190035762                       # Write bandwidth from this memory (bytes/s)
system.mem_ctrls0.bw_total::ruby.dir_cntrl0    645963295                       # Total bandwidth to/from this memory (bytes/s)
system.mem_ctrls0.bw_total::total           645963295                       # Total bandwidth to/from this memory (bytes/s)
system.mem_ctrls0.readReqs                     870413                       # Number of read requests accepted
system.mem_ctrls0.writeReqs                    362798                       # Number of write requests accepted
system.mem_ctrls0.readBursts                   870413                       # Number of DRAM read bursts, including those serviced by the write queue
system.mem_ctrls0.writeBursts                  362798                       # Number of DRAM write bursts, including those merged in the write queue
system.mem_ctrls0.bytesReadDRAM              55696192                       # Total number of bytes read from DRAM
system.mem_ctrls0.bytesReadWrQ                  10240                       # Total number of bytes read from write queue
system.mem_ctrls0.bytesWritten               23219008                       # Total number of bytes written to DRAM
system.mem_ctrls0.bytesReadSys               55706432                       # Total read bytes from the system interface side
system.mem_ctrls0.bytesWrittenSys            23219072                       # Total written bytes from the system interface side
system.mem_ctrls0.servicedByWrQ                   160                       # Number of DRAM read bursts serviced by the write queue
system.mem_ctrls0.mergedWrBursts                    0                       # Number of DRAM write bursts merged with an existing one
system.mem_ctrls0.neitherReadNorWriteReqs            0                       # Number of requests that are neither read nor write
system.mem_ctrls0.perBankRdBursts::0            56370                       # Per bank write bursts
system.mem_ctrls0.perBankRdBursts::1            55114                       # Per bank write bursts
system.mem_ctrls0.perBankRdBursts::2            54162                       # Per bank write bursts
system.mem_ctrls0.perBankRdBursts::3            53645                       # Per bank write bursts
system.mem_ctrls0.perBankRdBursts::4            53066                       # Per bank write bursts
system.mem_ctrls0.perBankRdBursts::5            53496                       # Per bank write bursts
system.mem_ctrls0.perBankRdBursts::6            55739                       # Per bank write bursts
system.mem_ctrls0.perBankRdBursts::7            55502                       # Per bank write bursts
system.mem_ctrls0.perBankRdBursts::8            54950                       # Per bank write bursts
system.mem_ctrls0.perBankRdBursts::9            54460                       # Per bank write bursts
system.mem_ctrls0.perBankRdBursts::10           53703                       # Per bank write bursts
system.mem_ctrls0.perBankRdBursts::11           53392                       # Per bank write bursts
system.mem_ctrls0.perBankRdBursts::12           52684                       # Per bank write bursts
system.mem_ctrls0.perBankRdBursts::13           53400                       # Per bank write bursts
system.mem_ctrls0.perBankRdBursts::14           54837                       # Per bank write bursts
system.mem_ctrls0.perBankRdBursts::15           55733                       # Per bank write bursts
system.mem_ctrls0.perBankWrBursts::0            22850                       # Per bank write bursts
system.mem_ctrls0.perBankWrBursts::1            22880                       # Per bank write bursts
system.mem_ctrls0.perBankWrBursts::2            22648                       # Per bank write bursts
system.mem_ctrls0.perBankWrBursts::3            22681                       # Per bank write bursts
system.mem_ctrls0.perBankWrBursts::4            22379                       # Per bank write bursts
system.mem_ctrls0.perBankWrBursts::5            22692                       # Per bank write bursts
system.mem_ctrls0.perBankWrBursts::6            22992                       # Per bank write bursts
system.mem_ctrls0.perBankWrBursts::7            23333                       # Per bank write bursts
system.mem_ctrls0.perBankWrBursts::8            22672                       # Per bank write bursts
system.mem_ctrls0.perBankWrBursts::9            22697                       # Per bank write bursts
system.mem_ctrls0.perBankWrBursts::10           22266                       # Per bank write bursts
system.mem_ctrls0.perBankWrBursts::11           22362                       # Per bank write bursts
system.mem_ctrls0.perBankWrBursts::12           22112                       # Per bank write bursts
system.mem_ctrls0.perBankWrBursts::13           22468                       # Per bank write bursts
system.mem_ctrls0.perBankWrBursts::14           22717                       # Per bank write bursts
system.mem_ctrls0.perBankWrBursts::15           23048                       # Per bank write bursts
system.mem_ctrls0.numRdRetry                   127442                       # Number of times read queue was full causing retry
system.mem_ctrls0.numWrRetry                    27943                       # Number of times write queue was full causing retry
system.mem_ctrls0.totGap                 122182136500                       # Total gap between requests
system.mem_ctrls0.readPktSize::0                    0                       # Read request sizes (log2)
system.mem_ctrls0.readPktSize::1                    0                       # Read request sizes (log2)
system.mem_ctrls0.readPktSize::2                    0                       # Read request sizes (log2)
system.mem_ctrls0.readPktSize::3                    0                       # Read request sizes (log2)
system.mem_ctrls0.readPktSize::4                    0                       # Read request sizes (log2)
system.mem_ctrls0.readPktSize::5                    0                       # Read request sizes (log2)
system.mem_ctrls0.readPktSize::6               870413                       # Read request sizes (log2)
system.mem_ctrls0.writePktSize::0                   0                       # Write request sizes (log2)
system.mem_ctrls0.writePktSize::1                   0                       # Write request sizes (log2)
system.mem_ctrls0.writePktSize::2                   0                       # Write request sizes (log2)
system.mem_ctrls0.writePktSize::3                   0                       # Write request sizes (log2)
system.mem_ctrls0.writePktSize::4                   0                       # Write request sizes (log2)
system.mem_ctrls0.writePktSize::5                   0                       # Write request sizes (log2)
system.mem_ctrls0.writePktSize::6              362798                       # Write request sizes (log2)
system.mem_ctrls0.rdQLenPdf::0                 183507                       # What read queue length does an incoming req see
system.mem_ctrls0.rdQLenPdf::1                  27550                       # What read queue length does an incoming req see
system.mem_ctrls0.rdQLenPdf::2                  25943                       # What read queue length does an incoming req see
system.mem_ctrls0.rdQLenPdf::3                  26425                       # What read queue length does an incoming req see
system.mem_ctrls0.rdQLenPdf::4                  26774                       # What read queue length does an incoming req see
system.mem_ctrls0.rdQLenPdf::5                  26932                       # What read queue length does an incoming req see
system.mem_ctrls0.rdQLenPdf::6                  27180                       # What read queue length does an incoming req see
system.mem_ctrls0.rdQLenPdf::7                  26721                       # What read queue length does an incoming req see
system.mem_ctrls0.rdQLenPdf::8                  25753                       # What read queue length does an incoming req see
system.mem_ctrls0.rdQLenPdf::9                  25362                       # What read queue length does an incoming req see
system.mem_ctrls0.rdQLenPdf::10                 24552                       # What read queue length does an incoming req see
system.mem_ctrls0.rdQLenPdf::11                 23762                       # What read queue length does an incoming req see
system.mem_ctrls0.rdQLenPdf::12                 22779                       # What read queue length does an incoming req see
system.mem_ctrls0.rdQLenPdf::13                 21802                       # What read queue length does an incoming req see
system.mem_ctrls0.rdQLenPdf::14                 20647                       # What read queue length does an incoming req see
system.mem_ctrls0.rdQLenPdf::15                 19124                       # What read queue length does an incoming req see
system.mem_ctrls0.rdQLenPdf::16                 18085                       # What read queue length does an incoming req see
system.mem_ctrls0.rdQLenPdf::17                 16969                       # What read queue length does an incoming req see
system.mem_ctrls0.rdQLenPdf::18                 15827                       # What read queue length does an incoming req see
system.mem_ctrls0.rdQLenPdf::19                 14828                       # What read queue length does an incoming req see
system.mem_ctrls0.rdQLenPdf::20                 13914                       # What read queue length does an incoming req see
system.mem_ctrls0.rdQLenPdf::21                 13027                       # What read queue length does an incoming req see
system.mem_ctrls0.rdQLenPdf::22                 12071                       # What read queue length does an incoming req see
system.mem_ctrls0.rdQLenPdf::23                 11299                       # What read queue length does an incoming req see
system.mem_ctrls0.rdQLenPdf::24                 10700                       # What read queue length does an incoming req see
system.mem_ctrls0.rdQLenPdf::25                 10062                       # What read queue length does an incoming req see
system.mem_ctrls0.rdQLenPdf::26                  9472                       # What read queue length does an incoming req see
system.mem_ctrls0.rdQLenPdf::27                  8839                       # What read queue length does an incoming req see
system.mem_ctrls0.rdQLenPdf::28                  8472                       # What read queue length does an incoming req see
system.mem_ctrls0.rdQLenPdf::29                  8093                       # What read queue length does an incoming req see
system.mem_ctrls0.rdQLenPdf::30                  7978                       # What read queue length does an incoming req see
system.mem_ctrls0.rdQLenPdf::31                135804                       # What read queue length does an incoming req see
system.mem_ctrls0.wrQLenPdf::0                  47789                       # What write queue length does an incoming req see
system.mem_ctrls0.wrQLenPdf::1                  52059                       # What write queue length does an incoming req see
system.mem_ctrls0.wrQLenPdf::2                  55104                       # What write queue length does an incoming req see
system.mem_ctrls0.wrQLenPdf::3                  56997                       # What write queue length does an incoming req see
system.mem_ctrls0.wrQLenPdf::4                  58649                       # What write queue length does an incoming req see
system.mem_ctrls0.wrQLenPdf::5                  23188                       # What write queue length does an incoming req see
system.mem_ctrls0.wrQLenPdf::6                  23787                       # What write queue length does an incoming req see
system.mem_ctrls0.wrQLenPdf::7                  45225                       # What write queue length does an incoming req see
system.mem_ctrls0.bytesPerActivate::samples       371698                       # Bytes accessed per row activation
system.mem_ctrls0.bytesPerActivate::mean   212.309649                       # Bytes accessed per row activation
system.mem_ctrls0.bytesPerActivate::gmean   156.876631                       # Bytes accessed per row activation
system.mem_ctrls0.bytesPerActivate::stdev   175.361831                       # Bytes accessed per row activation
system.mem_ctrls0.bytesPerActivate::0-127       124117     33.39%     33.39% # Bytes accessed per row activation
system.mem_ctrls0.bytesPerActivate::128-255       110674     29.78%     63.17% # Bytes accessed per row activation
system.mem_ctrls0.bytesPerActivate::256-383        78612     21.15%     84.32% # Bytes accessed per row activation
system.mem_ctrls0.bytesPerActivate::384-511        24858      6.69%     91.00% # Bytes accessed per row activation
system.mem_ctrls0.bytesPerActivate::512-639        19647      5.29%     96.29% # Bytes accessed per row activation
system.mem_ctrls0.bytesPerActivate::640-767         6133      1.65%     97.94% # Bytes accessed per row activation
system.mem_ctrls0.bytesPerActivate::768-895         4004      1.08%     99.02% # Bytes accessed per row activation
system.mem_ctrls0.bytesPerActivate::896-1023         2887      0.78%     99.79% # Bytes accessed per row activation
system.mem_ctrls0.bytesPerActivate::1024-1151          766      0.21%    100.00% # Bytes accessed per row activation
system.mem_ctrls0.bytesPerActivate::total       371698                       # Bytes accessed per row activation
system.mem_ctrls0.rdPerTurnAround::samples        50787                       # Reads before turning the bus around for writes
system.mem_ctrls0.rdPerTurnAround::mean     17.135310                       # Reads before turning the bus around for writes
system.mem_ctrls0.rdPerTurnAround::stdev    33.874286                       # Reads before turning the bus around for writes
system.mem_ctrls0.rdPerTurnAround::0-127        50320     99.08%     99.08% # Reads before turning the bus around for writes
system.mem_ctrls0.rdPerTurnAround::128-255          408      0.80%     99.88% # Reads before turning the bus around for writes
system.mem_ctrls0.rdPerTurnAround::256-383           31      0.06%     99.94% # Reads before turning the bus around for writes
system.mem_ctrls0.rdPerTurnAround::384-511            7      0.01%     99.96% # Reads before turning the bus around for writes
system.mem_ctrls0.rdPerTurnAround::512-639            8      0.02%     99.97% # Reads before turning the bus around for writes
system.mem_ctrls0.rdPerTurnAround::640-767            7      0.01%     99.99% # Reads before turning the bus around for writes
system.mem_ctrls0.rdPerTurnAround::768-895            1      0.00%     99.99% # Reads before turning the bus around for writes
system.mem_ctrls0.rdPerTurnAround::896-1023            2      0.00%     99.99% # Reads before turning the bus around for writes
system.mem_ctrls0.rdPerTurnAround::1024-1151            1      0.00%    100.00% # Reads before turning the bus around for writes
system.mem_ctrls0.rdPerTurnAround::1280-1407            1      0.00%    100.00% # Reads before turning the bus around for writes
system.mem_ctrls0.rdPerTurnAround::3968-4095            1      0.00%    100.00% # Reads before turning the bus around for writes
system.mem_ctrls0.rdPerTurnAround::total        50787                       # Reads before turning the bus around for writes
system.mem_ctrls0.wrPerTurnAround::samples        50787                       # Writes before turning the bus around for reads
system.mem_ctrls0.wrPerTurnAround::mean      7.143501                       # Writes before turning the bus around for reads
system.mem_ctrls0.wrPerTurnAround::gmean     6.504677                       # Writes before turning the bus around for reads
system.mem_ctrls0.wrPerTurnAround::stdev     3.548579                       # Writes before turning the bus around for reads
system.mem_ctrls0.wrPerTurnAround::4-7          36531     71.93%     71.93% # Writes before turning the bus around for reads
system.mem_ctrls0.wrPerTurnAround::8-11          6585     12.97%     84.90% # Writes before turning the bus around for reads
system.mem_ctrls0.wrPerTurnAround::12-15         3945      7.77%     92.66% # Writes before turning the bus around for reads
system.mem_ctrls0.wrPerTurnAround::16-19         3726      7.34%    100.00% # Writes before turning the bus around for reads
system.mem_ctrls0.wrPerTurnAround::total        50787                       # Writes before turning the bus around for reads
system.mem_ctrls0.totQLat                112595296141                       # Total ticks spent queuing
system.mem_ctrls0.totMemAccLat           128912539891                       # Total ticks spent from burst creation until serviced by the DRAM
system.mem_ctrls0.totBusLat                4351265000                       # Total ticks spent in databus transfers
system.mem_ctrls0.avgQLat                   129382.26                       # Average queueing delay per DRAM burst
system.mem_ctrls0.avgBusLat                   5000.00                       # Average bus latency per DRAM burst
system.mem_ctrls0.avgMemAccLat              148132.26                       # Average memory access latency per DRAM burst
system.mem_ctrls0.avgRdBW                      455.84                       # Average DRAM read bandwidth in MiByte/s
system.mem_ctrls0.avgWrBW                      190.04                       # Average achieved write bandwidth in MiByte/s
system.mem_ctrls0.avgRdBWSys                   455.93                       # Average system read bandwidth in MiByte/s
system.mem_ctrls0.avgWrBWSys                   190.04                       # Average system write bandwidth in MiByte/s
system.mem_ctrls0.peakBW                     12800.00                       # Theoretical peak bandwidth in MiByte/s
system.mem_ctrls0.busUtil                        5.05                       # Data bus utilization in percentage
system.mem_ctrls0.busUtilRead                    3.56                       # Data bus utilization in percentage for reads
system.mem_ctrls0.busUtilWrite                   1.48                       # Data bus utilization in percentage for writes
system.mem_ctrls0.avgRdQLen                      2.29                       # Average read queue length when enqueuing
system.mem_ctrls0.avgWrQLen                      3.10                       # Average write queue length when enqueuing
system.mem_ctrls0.readRowHits                  669473                       # Number of row buffer hits during reads
system.mem_ctrls0.writeRowHits                 191878                       # Number of row buffer hits during writes
system.mem_ctrls0.readRowHitRate                76.93                       # Row buffer hit rate for reads
system.mem_ctrls0.writeRowHitRate               52.89                       # Row buffer hit rate for writes
system.mem_ctrls0.avgGap                     99076.42                       # Average gap between requests
system.mem_ctrls0.pageHitRate                   69.86                       # Row buffer hit rate, read and write combined
system.mem_ctrls0.memoryStateTime::IDLE   20216323250                       # Time in different power states
system.mem_ctrls0.memoryStateTime::REF     4079920000                       # Time in different power states
system.mem_ctrls0.memoryStateTime::PRE_PDN            0                       # Time in different power states
system.mem_ctrls0.memoryStateTime::ACT    97885964750                       # Time in different power states
system.mem_ctrls0.memoryStateTime::ACT_PDN            0                       # Time in different power states
system.mem_ctrls0.actEnergy::0             1416706200                       # Energy for activate commands per rank (pJ)
system.mem_ctrls0.actEnergy::1             1393323120                       # Energy for activate commands per rank (pJ)
system.mem_ctrls0.preEnergy::0              773004375                       # Energy for precharge commands per rank (pJ)
system.mem_ctrls0.preEnergy::1              760245750                       # Energy for precharge commands per rank (pJ)
system.mem_ctrls0.readEnergy::0            3409333200                       # Energy for read commands per rank (pJ)
system.mem_ctrls0.readEnergy::1            3378624600                       # Energy for read commands per rank (pJ)
system.mem_ctrls0.writeEnergy::0           1182308400                       # Energy for write commands per rank (pJ)
system.mem_ctrls0.writeEnergy::1           1168609680                       # Energy for write commands per rank (pJ)
system.mem_ctrls0.refreshEnergy::0         7980323520                       # Energy for refresh commands per rank (pJ)
system.mem_ctrls0.refreshEnergy::1         7980323520                       # Energy for refresh commands per rank (pJ)
system.mem_ctrls0.actBackEnergy::0        51045081750                       # Energy for active background per rank (pJ)
system.mem_ctrls0.actBackEnergy::1        50570936370                       # Energy for active background per rank (pJ)
system.mem_ctrls0.preBackEnergy::0        28532929500                       # Energy for precharge background per rank (pJ)
system.mem_ctrls0.preBackEnergy::1        28948846500                       # Energy for precharge background per rank (pJ)
system.mem_ctrls0.totalEnergy::0          94339686945                       # Total energy per rank (pJ)
system.mem_ctrls0.totalEnergy::1          94200909540                       # Total energy per rank (pJ)
system.mem_ctrls0.averagePower::0          772.123033                       # Core power per rank (mW)
system.mem_ctrls0.averagePower::1          770.987209                       # Core power per rank (mW)
system.mem_ctrls1.bytes_read::ruby.dir_cntrl1     55113792                       # Number of bytes read from this memory
system.mem_ctrls1.bytes_read::total          55113792                       # Number of bytes read from this memory
system.mem_ctrls1.bytes_written::ruby.dir_cntrl1     22673600                       # Number of bytes written to this memory
system.mem_ctrls1.bytes_written::total       22673600                       # Number of bytes written to this memory
system.mem_ctrls1.num_reads::ruby.dir_cntrl1       861153                       # Number of read requests responded to by this memory
system.mem_ctrls1.num_reads::total             861153                       # Number of read requests responded to by this memory
system.mem_ctrls1.num_writes::ruby.dir_cntrl1       354275                       # Number of write requests responded to by this memory
system.mem_ctrls1.num_writes::total            354275                       # Number of write requests responded to by this memory
system.mem_ctrls1.bw_read::ruby.dir_cntrl1    451077090                       # Total read bandwidth from this memory (bytes/s)
system.mem_ctrls1.bw_read::total            451077090                       # Total read bandwidth from this memory (bytes/s)
system.mem_ctrls1.bw_write::ruby.dir_cntrl1    185571363                       # Write bandwidth from this memory (bytes/s)
system.mem_ctrls1.bw_write::total           185571363                       # Write bandwidth from this memory (bytes/s)
system.mem_ctrls1.bw_total::ruby.dir_cntrl1    636648454                       # Total bandwidth to/from this memory (bytes/s)
system.mem_ctrls1.bw_total::total           636648454                       # Total bandwidth to/from this memory (bytes/s)
system.mem_ctrls1.readReqs                     861153                       # Number of read requests accepted
system.mem_ctrls1.writeReqs                    354275                       # Number of write requests accepted
system.mem_ctrls1.readBursts                   861153                       # Number of DRAM read bursts, including those serviced by the write queue
system.mem_ctrls1.writeBursts                  354275                       # Number of DRAM write bursts, including those merged in the write queue
system.mem_ctrls1.bytesReadDRAM              55102400                       # Total number of bytes read from DRAM
system.mem_ctrls1.bytesReadWrQ                  11392                       # Total number of bytes read from write queue
system.mem_ctrls1.bytesWritten               22673600                       # Total number of bytes written to DRAM
system.mem_ctrls1.bytesReadSys               55113792                       # Total read bytes from the system interface side
system.mem_ctrls1.bytesWrittenSys            22673600                       # Total written bytes from the system interface side
system.mem_ctrls1.servicedByWrQ                   178                       # Number of DRAM read bursts serviced by the write queue
system.mem_ctrls1.mergedWrBursts                    0                       # Number of DRAM write bursts merged with an existing one
system.mem_ctrls1.neitherReadNorWriteReqs            0                       # Number of requests that are neither read nor write
system.mem_ctrls1.perBankRdBursts::0            55714                       # Per bank write bursts
system.mem_ctrls1.perBankRdBursts::1            54402                       # Per bank write bursts
system.mem_ctrls1.perBankRdBursts::2            53435                       # Per bank write bursts
system.mem_ctrls1.perBankRdBursts::3            53171                       # Per bank write bursts
system.mem_ctrls1.perBankRdBursts::4            52603                       # Per bank write bursts
system.mem_ctrls1.perBankRdBursts::5            52816                       # Per bank write bursts
system.mem_ctrls1.perBankRdBursts::6            55528                       # Per bank write bursts
system.mem_ctrls1.perBankRdBursts::7            54983                       # Per bank write bursts
system.mem_ctrls1.perBankRdBursts::8            54425                       # Per bank write bursts
system.mem_ctrls1.perBankRdBursts::9            53717                       # Per bank write bursts
system.mem_ctrls1.perBankRdBursts::10           52959                       # Per bank write bursts
system.mem_ctrls1.perBankRdBursts::11           52887                       # Per bank write bursts
system.mem_ctrls1.perBankRdBursts::12           52012                       # Per bank write bursts
system.mem_ctrls1.perBankRdBursts::13           52735                       # Per bank write bursts
system.mem_ctrls1.perBankRdBursts::14           54417                       # Per bank write bursts
system.mem_ctrls1.perBankRdBursts::15           55171                       # Per bank write bursts
system.mem_ctrls1.perBankWrBursts::0            22446                       # Per bank write bursts
system.mem_ctrls1.perBankWrBursts::1            22276                       # Per bank write bursts
system.mem_ctrls1.perBankWrBursts::2            22138                       # Per bank write bursts
system.mem_ctrls1.perBankWrBursts::3            22108                       # Per bank write bursts
system.mem_ctrls1.perBankWrBursts::4            21927                       # Per bank write bursts
system.mem_ctrls1.perBankWrBursts::5            22095                       # Per bank write bursts
system.mem_ctrls1.perBankWrBursts::6            22561                       # Per bank write bursts
system.mem_ctrls1.perBankWrBursts::7            22734                       # Per bank write bursts
system.mem_ctrls1.perBankWrBursts::8            22241                       # Per bank write bursts
system.mem_ctrls1.perBankWrBursts::9            22039                       # Per bank write bursts
system.mem_ctrls1.perBankWrBursts::10           21744                       # Per bank write bursts
system.mem_ctrls1.perBankWrBursts::11           21789                       # Per bank write bursts
system.mem_ctrls1.perBankWrBursts::12           21618                       # Per bank write bursts
system.mem_ctrls1.perBankWrBursts::13           21858                       # Per bank write bursts
system.mem_ctrls1.perBankWrBursts::14           22249                       # Per bank write bursts
system.mem_ctrls1.perBankWrBursts::15           22452                       # Per bank write bursts
system.mem_ctrls1.numRdRetry                   123859                       # Number of times read queue was full causing retry
system.mem_ctrls1.numWrRetry                    26735                       # Number of times write queue was full causing retry
system.mem_ctrls1.totGap                 122181916500                       # Total gap between requests
system.mem_ctrls1.readPktSize::0                    0                       # Read request sizes (log2)
system.mem_ctrls1.readPktSize::1                    0                       # Read request sizes (log2)
system.mem_ctrls1.readPktSize::2                    0                       # Read request sizes (log2)
system.mem_ctrls1.readPktSize::3                    0                       # Read request sizes (log2)
system.mem_ctrls1.readPktSize::4                    0                       # Read request sizes (log2)
system.mem_ctrls1.readPktSize::5                    0                       # Read request sizes (log2)
system.mem_ctrls1.readPktSize::6               861153                       # Read request sizes (log2)
system.mem_ctrls1.writePktSize::0                   0                       # Write request sizes (log2)
system.mem_ctrls1.writePktSize::1                   0                       # Write request sizes (log2)
system.mem_ctrls1.writePktSize::2                   0                       # Write request sizes (log2)
system.mem_ctrls1.writePktSize::3                   0                       # Write request sizes (log2)
system.mem_ctrls1.writePktSize::4                   0                       # Write request sizes (log2)
system.mem_ctrls1.writePktSize::5                   0                       # Write request sizes (log2)
system.mem_ctrls1.writePktSize::6              354275                       # Write request sizes (log2)
system.mem_ctrls1.rdQLenPdf::0                 176312                       # What read queue length does an incoming req see
system.mem_ctrls1.rdQLenPdf::1                  26839                       # What read queue length does an incoming req see
system.mem_ctrls1.rdQLenPdf::2                  26813                       # What read queue length does an incoming req see
system.mem_ctrls1.rdQLenPdf::3                  27145                       # What read queue length does an incoming req see
system.mem_ctrls1.rdQLenPdf::4                  27594                       # What read queue length does an incoming req see
system.mem_ctrls1.rdQLenPdf::5                  27384                       # What read queue length does an incoming req see
system.mem_ctrls1.rdQLenPdf::6                  27026                       # What read queue length does an incoming req see
system.mem_ctrls1.rdQLenPdf::7                  26863                       # What read queue length does an incoming req see
system.mem_ctrls1.rdQLenPdf::8                  26208                       # What read queue length does an incoming req see
system.mem_ctrls1.rdQLenPdf::9                  25642                       # What read queue length does an incoming req see
system.mem_ctrls1.rdQLenPdf::10                 24610                       # What read queue length does an incoming req see
system.mem_ctrls1.rdQLenPdf::11                 23725                       # What read queue length does an incoming req see
system.mem_ctrls1.rdQLenPdf::12                 22488                       # What read queue length does an incoming req see
system.mem_ctrls1.rdQLenPdf::13                 21721                       # What read queue length does an incoming req see
system.mem_ctrls1.rdQLenPdf::14                 20571                       # What read queue length does an incoming req see
system.mem_ctrls1.rdQLenPdf::15                 19195                       # What read queue length does an incoming req see
system.mem_ctrls1.rdQLenPdf::16                 17907                       # What read queue length does an incoming req see
system.mem_ctrls1.rdQLenPdf::17                 16799                       # What read queue length does an incoming req see
system.mem_ctrls1.rdQLenPdf::18                 15713                       # What read queue length does an incoming req see
system.mem_ctrls1.rdQLenPdf::19                 14713                       # What read queue length does an incoming req see
system.mem_ctrls1.rdQLenPdf::20                 13668                       # What read queue length does an incoming req see
system.mem_ctrls1.rdQLenPdf::21                 12907                       # What read queue length does an incoming req see
system.mem_ctrls1.rdQLenPdf::22                 11926                       # What read queue length does an incoming req see
system.mem_ctrls1.rdQLenPdf::23                 11187                       # What read queue length does an incoming req see
system.mem_ctrls1.rdQLenPdf::24                 10713                       # What read queue length does an incoming req see
system.mem_ctrls1.rdQLenPdf::25                  9976                       # What read queue length does an incoming req see
system.mem_ctrls1.rdQLenPdf::26                  9393                       # What read queue length does an incoming req see
system.mem_ctrls1.rdQLenPdf::27                  8945                       # What read queue length does an incoming req see
system.mem_ctrls1.rdQLenPdf::28                  8381                       # What read queue length does an incoming req see
system.mem_ctrls1.rdQLenPdf::29                  8274                       # What read queue length does an incoming req see
system.mem_ctrls1.rdQLenPdf::30                  8160                       # What read queue length does an incoming req see
system.mem_ctrls1.rdQLenPdf::31                132177                       # What read queue length does an incoming req see
system.mem_ctrls1.wrQLenPdf::0                  46116                       # What write queue length does an incoming req see
system.mem_ctrls1.wrQLenPdf::1                  50514                       # What write queue length does an incoming req see
system.mem_ctrls1.wrQLenPdf::2                  53455                       # What write queue length does an incoming req see
system.mem_ctrls1.wrQLenPdf::3                  55704                       # What write queue length does an incoming req see
system.mem_ctrls1.wrQLenPdf::4                  57252                       # What write queue length does an incoming req see
system.mem_ctrls1.wrQLenPdf::5                  23356                       # What write queue length does an incoming req see
system.mem_ctrls1.wrQLenPdf::6                  23789                       # What write queue length does an incoming req see
system.mem_ctrls1.wrQLenPdf::7                  44089                       # What write queue length does an incoming req see
system.mem_ctrls1.bytesPerActivate::samples       358038                       # Bytes accessed per row activation
system.mem_ctrls1.bytesPerActivate::mean   217.227445                       # Bytes accessed per row activation
system.mem_ctrls1.bytesPerActivate::gmean   160.313528                       # Bytes accessed per row activation
system.mem_ctrls1.bytesPerActivate::stdev   177.544255                       # Bytes accessed per row activation
system.mem_ctrls1.bytesPerActivate::0-127       117894     32.93%     32.93% # Bytes accessed per row activation
system.mem_ctrls1.bytesPerActivate::128-255       102652     28.67%     61.60% # Bytes accessed per row activation
system.mem_ctrls1.bytesPerActivate::256-383        78771     22.00%     83.60% # Bytes accessed per row activation
system.mem_ctrls1.bytesPerActivate::384-511        25048      7.00%     90.60% # Bytes accessed per row activation
system.mem_ctrls1.bytesPerActivate::512-639        19902      5.56%     96.15% # Bytes accessed per row activation
system.mem_ctrls1.bytesPerActivate::640-767         6151      1.72%     97.87% # Bytes accessed per row activation
system.mem_ctrls1.bytesPerActivate::768-895         3870      1.08%     98.95% # Bytes accessed per row activation
system.mem_ctrls1.bytesPerActivate::896-1023         3001      0.84%     99.79% # Bytes accessed per row activation
system.mem_ctrls1.bytesPerActivate::1024-1151          749      0.21%    100.00% # Bytes accessed per row activation
system.mem_ctrls1.bytesPerActivate::total       358038                       # Bytes accessed per row activation
system.mem_ctrls1.rdPerTurnAround::samples        49134                       # Reads before turning the bus around for writes
system.mem_ctrls1.rdPerTurnAround::mean     17.522998                       # Reads before turning the bus around for writes
system.mem_ctrls1.rdPerTurnAround::stdev    32.572802                       # Reads before turning the bus around for writes
system.mem_ctrls1.rdPerTurnAround::0-127        48688     99.09%     99.09% # Reads before turning the bus around for writes
system.mem_ctrls1.rdPerTurnAround::128-255          385      0.78%     99.88% # Reads before turning the bus around for writes
system.mem_ctrls1.rdPerTurnAround::256-383           30      0.06%     99.94% # Reads before turning the bus around for writes
system.mem_ctrls1.rdPerTurnAround::384-511           12      0.02%     99.96% # Reads before turning the bus around for writes
system.mem_ctrls1.rdPerTurnAround::512-639            8      0.02%     99.98% # Reads before turning the bus around for writes
system.mem_ctrls1.rdPerTurnAround::640-767            3      0.01%     99.98% # Reads before turning the bus around for writes
system.mem_ctrls1.rdPerTurnAround::768-895            2      0.00%     99.99% # Reads before turning the bus around for writes
system.mem_ctrls1.rdPerTurnAround::896-1023            2      0.00%     99.99% # Reads before turning the bus around for writes
system.mem_ctrls1.rdPerTurnAround::1024-1151            1      0.00%     99.99% # Reads before turning the bus around for writes
system.mem_ctrls1.rdPerTurnAround::1152-1279            1      0.00%    100.00% # Reads before turning the bus around for writes
system.mem_ctrls1.rdPerTurnAround::1408-1535            1      0.00%    100.00% # Reads before turning the bus around for writes
system.mem_ctrls1.rdPerTurnAround::2816-2943            1      0.00%    100.00% # Reads before turning the bus around for writes
system.mem_ctrls1.rdPerTurnAround::total        49134                       # Reads before turning the bus around for writes
system.mem_ctrls1.wrPerTurnAround::samples        49134                       # Writes before turning the bus around for reads
system.mem_ctrls1.wrPerTurnAround::mean      7.210384                       # Writes before turning the bus around for reads
system.mem_ctrls1.wrPerTurnAround::gmean     6.553284                       # Writes before turning the bus around for reads
system.mem_ctrls1.wrPerTurnAround::stdev     3.597689                       # Writes before turning the bus around for reads
system.mem_ctrls1.wrPerTurnAround::4-7          34945     71.12%     71.12% # Writes before turning the bus around for reads
system.mem_ctrls1.wrPerTurnAround::8-11          6429     13.08%     84.21% # Writes before turning the bus around for reads
system.mem_ctrls1.wrPerTurnAround::12-15         4068      8.28%     92.49% # Writes before turning the bus around for reads
system.mem_ctrls1.wrPerTurnAround::16-19         3692      7.51%    100.00% # Writes before turning the bus around for reads
system.mem_ctrls1.wrPerTurnAround::total        49134                       # Writes before turning the bus around for reads
system.mem_ctrls1.totQLat                111419160759                       # Total ticks spent queuing
system.mem_ctrls1.totMemAccLat           127562442009                       # Total ticks spent from burst creation until serviced by the DRAM
system.mem_ctrls1.totBusLat                4304875000                       # Total ticks spent in databus transfers
system.mem_ctrls1.avgQLat                   129410.45                       # Average queueing delay per DRAM burst
system.mem_ctrls1.avgBusLat                   5000.00                       # Average bus latency per DRAM burst
system.mem_ctrls1.avgMemAccLat              148160.45                       # Average memory access latency per DRAM burst
system.mem_ctrls1.avgRdBW                      450.98                       # Average DRAM read bandwidth in MiByte/s
system.mem_ctrls1.avgWrBW                      185.57                       # Average achieved write bandwidth in MiByte/s
system.mem_ctrls1.avgRdBWSys                   451.08                       # Average system read bandwidth in MiByte/s
system.mem_ctrls1.avgWrBWSys                   185.57                       # Average system write bandwidth in MiByte/s
system.mem_ctrls1.peakBW                     12800.00                       # Theoretical peak bandwidth in MiByte/s
system.mem_ctrls1.busUtil                        4.97                       # Data bus utilization in percentage
system.mem_ctrls1.busUtilRead                    3.52                       # Data bus utilization in percentage for reads
system.mem_ctrls1.busUtilWrite                   1.45                       # Data bus utilization in percentage for writes
system.mem_ctrls1.avgRdQLen                      2.28                       # Average read queue length when enqueuing
system.mem_ctrls1.avgWrQLen                      3.09                       # Average write queue length when enqueuing
system.mem_ctrls1.readRowHits                  665997                       # Number of row buffer hits during reads
system.mem_ctrls1.writeRowHits                 191213                       # Number of row buffer hits during writes
system.mem_ctrls1.readRowHitRate                77.35                       # Row buffer hit rate for reads
system.mem_ctrls1.writeRowHitRate               53.97                       # Row buffer hit rate for writes
system.mem_ctrls1.avgGap                    100525.84                       # Average gap between requests
system.mem_ctrls1.pageHitRate                   70.54                       # Row buffer hit rate, read and write combined
system.mem_ctrls1.memoryStateTime::IDLE   20699627000                       # Time in different power states
system.mem_ctrls1.memoryStateTime::REF     4079920000                       # Time in different power states
system.mem_ctrls1.memoryStateTime::PRE_PDN            0                       # Time in different power states
system.mem_ctrls1.memoryStateTime::ACT    97402951000                       # Time in different power states
system.mem_ctrls1.memoryStateTime::ACT_PDN            0                       # Time in different power states
system.mem_ctrls1.actEnergy::0             1366560720                       # Energy for activate commands per rank (pJ)
system.mem_ctrls1.actEnergy::1             1340199000                       # Energy for activate commands per rank (pJ)
system.mem_ctrls1.preEnergy::0              745643250                       # Energy for precharge commands per rank (pJ)
system.mem_ctrls1.preEnergy::1              731259375                       # Energy for precharge commands per rank (pJ)
system.mem_ctrls1.readEnergy::0            3374685600                       # Energy for read commands per rank (pJ)
system.mem_ctrls1.readEnergy::1            3340903800                       # Energy for read commands per rank (pJ)
system.mem_ctrls1.writeEnergy::0           1155280320                       # Energy for write commands per rank (pJ)
system.mem_ctrls1.writeEnergy::1           1140389280                       # Energy for write commands per rank (pJ)
system.mem_ctrls1.refreshEnergy::0         7980323520                       # Energy for refresh commands per rank (pJ)
system.mem_ctrls1.refreshEnergy::1         7980323520                       # Energy for refresh commands per rank (pJ)
system.mem_ctrls1.actBackEnergy::0        49841128890                       # Energy for active background per rank (pJ)
system.mem_ctrls1.actBackEnergy::1        49614565860                       # Energy for active background per rank (pJ)
system.mem_ctrls1.preBackEnergy::0        29588968500                       # Energy for precharge background per rank (pJ)
system.mem_ctrls1.preBackEnergy::1        29787708000                       # Energy for precharge background per rank (pJ)
system.mem_ctrls1.totalEnergy::0          94052590800                       # Total energy per rank (pJ)
system.mem_ctrls1.totalEnergy::1          93935348835                       # Total energy per rank (pJ)
system.mem_ctrls1.averagePower::0          769.773925                       # Core power per rank (mW)
system.mem_ctrls1.averagePower::1          768.814357                       # Core power per rank (mW)
system.mem_ctrls2.bytes_read::ruby.dir_cntrl2     55089536                       # Number of bytes read from this memory
system.mem_ctrls2.bytes_read::total          55089536                       # Number of bytes read from this memory
system.mem_ctrls2.bytes_written::ruby.dir_cntrl2     22656512                       # Number of bytes written to this memory
system.mem_ctrls2.bytes_written::total       22656512                       # Number of bytes written to this memory
system.mem_ctrls2.num_reads::ruby.dir_cntrl2       860774                       # Number of read requests responded to by this memory
system.mem_ctrls2.num_reads::total             860774                       # Number of read requests responded to by this memory
system.mem_ctrls2.num_writes::ruby.dir_cntrl2       354008                       # Number of write requests responded to by this memory
system.mem_ctrls2.num_writes::total            354008                       # Number of write requests responded to by this memory
system.mem_ctrls2.bw_read::ruby.dir_cntrl2    450878568                       # Total read bandwidth from this memory (bytes/s)
system.mem_ctrls2.bw_read::total            450878568                       # Total read bandwidth from this memory (bytes/s)
system.mem_ctrls2.bw_write::ruby.dir_cntrl2    185431507                       # Write bandwidth from this memory (bytes/s)
system.mem_ctrls2.bw_write::total           185431507                       # Write bandwidth from this memory (bytes/s)
system.mem_ctrls2.bw_total::ruby.dir_cntrl2    636310075                       # Total bandwidth to/from this memory (bytes/s)
system.mem_ctrls2.bw_total::total           636310075                       # Total bandwidth to/from this memory (bytes/s)
system.mem_ctrls2.readReqs                     860775                       # Number of read requests accepted
system.mem_ctrls2.writeReqs                    354008                       # Number of write requests accepted
system.mem_ctrls2.readBursts                   860775                       # Number of DRAM read bursts, including those serviced by the write queue
system.mem_ctrls2.writeBursts                  354008                       # Number of DRAM write bursts, including those merged in the write queue
system.mem_ctrls2.bytesReadDRAM              55083392                       # Total number of bytes read from DRAM
system.mem_ctrls2.bytesReadWrQ                   6208                       # Total number of bytes read from write queue
system.mem_ctrls2.bytesWritten               22656320                       # Total number of bytes written to DRAM
system.mem_ctrls2.bytesReadSys               55089600                       # Total read bytes from the system interface side
system.mem_ctrls2.bytesWrittenSys            22656512                       # Total written bytes from the system interface side
system.mem_ctrls2.servicedByWrQ                    97                       # Number of DRAM read bursts serviced by the write queue
system.mem_ctrls2.mergedWrBursts                    0                       # Number of DRAM write bursts merged with an existing one
system.mem_ctrls2.neitherReadNorWriteReqs            0                       # Number of requests that are neither read nor write
system.mem_ctrls2.perBankRdBursts::0            55896                       # Per bank write bursts
system.mem_ctrls2.perBankRdBursts::1            54441                       # Per bank write bursts
system.mem_ctrls2.perBankRdBursts::2            53365                       # Per bank write bursts
system.mem_ctrls2.perBankRdBursts::3            53166                       # Per bank write bursts
system.mem_ctrls2.perBankRdBursts::4            52806                       # Per bank write bursts
system.mem_ctrls2.perBankRdBursts::5            52596                       # Per bank write bursts
system.mem_ctrls2.perBankRdBursts::6            55393                       # Per bank write bursts
system.mem_ctrls2.perBankRdBursts::7            54840                       # Per bank write bursts
system.mem_ctrls2.perBankRdBursts::8            54587                       # Per bank write bursts
system.mem_ctrls2.perBankRdBursts::9            53659                       # Per bank write bursts
system.mem_ctrls2.perBankRdBursts::10           52836                       # Per bank write bursts
system.mem_ctrls2.perBankRdBursts::11           52949                       # Per bank write bursts
system.mem_ctrls2.perBankRdBursts::12           52298                       # Per bank write bursts
system.mem_ctrls2.perBankRdBursts::13           52347                       # Per bank write bursts
system.mem_ctrls2.perBankRdBursts::14           54385                       # Per bank write bursts
system.mem_ctrls2.perBankRdBursts::15           55114                       # Per bank write bursts
system.mem_ctrls2.perBankWrBursts::0            22524                       # Per bank write bursts
system.mem_ctrls2.perBankWrBursts::1            22159                       # Per bank write bursts
system.mem_ctrls2.perBankWrBursts::2            22219                       # Per bank write bursts
system.mem_ctrls2.perBankWrBursts::3            21971                       # Per bank write bursts
system.mem_ctrls2.perBankWrBursts::4            22087                       # Per bank write bursts
system.mem_ctrls2.perBankWrBursts::5            21927                       # Per bank write bursts
system.mem_ctrls2.perBankWrBursts::6            22594                       # Per bank write bursts
system.mem_ctrls2.perBankWrBursts::7            22593                       # Per bank write bursts
system.mem_ctrls2.perBankWrBursts::8            22363                       # Per bank write bursts
system.mem_ctrls2.perBankWrBursts::9            21956                       # Per bank write bursts
system.mem_ctrls2.perBankWrBursts::10           21800                       # Per bank write bursts
system.mem_ctrls2.perBankWrBursts::11           21680                       # Per bank write bursts
system.mem_ctrls2.perBankWrBursts::12           21782                       # Per bank write bursts
system.mem_ctrls2.perBankWrBursts::13           21648                       # Per bank write bursts
system.mem_ctrls2.perBankWrBursts::14           22351                       # Per bank write bursts
system.mem_ctrls2.perBankWrBursts::15           22351                       # Per bank write bursts
system.mem_ctrls2.numRdRetry                   122986                       # Number of times read queue was full causing retry
system.mem_ctrls2.numWrRetry                    28334                       # Number of times write queue was full causing retry
system.mem_ctrls2.totGap                 122182602000                       # Total gap between requests
system.mem_ctrls2.readPktSize::0                    0                       # Read request sizes (log2)
system.mem_ctrls2.readPktSize::1                    0                       # Read request sizes (log2)
system.mem_ctrls2.readPktSize::2                    0                       # Read request sizes (log2)
system.mem_ctrls2.readPktSize::3                    0                       # Read request sizes (log2)
system.mem_ctrls2.readPktSize::4                    0                       # Read request sizes (log2)
system.mem_ctrls2.readPktSize::5                    0                       # Read request sizes (log2)
system.mem_ctrls2.readPktSize::6               860775                       # Read request sizes (log2)
system.mem_ctrls2.writePktSize::0                   0                       # Write request sizes (log2)
system.mem_ctrls2.writePktSize::1                   0                       # Write request sizes (log2)
system.mem_ctrls2.writePktSize::2                   0                       # Write request sizes (log2)
system.mem_ctrls2.writePktSize::3                   0                       # Write request sizes (log2)
system.mem_ctrls2.writePktSize::4                   0                       # Write request sizes (log2)
system.mem_ctrls2.writePktSize::5                   0                       # Write request sizes (log2)
system.mem_ctrls2.writePktSize::6              354008                       # Write request sizes (log2)
system.mem_ctrls2.rdQLenPdf::0                 176483                       # What read queue length does an incoming req see
system.mem_ctrls2.rdQLenPdf::1                  26229                       # What read queue length does an incoming req see
system.mem_ctrls2.rdQLenPdf::2                  26274                       # What read queue length does an incoming req see
system.mem_ctrls2.rdQLenPdf::3                  26866                       # What read queue length does an incoming req see
system.mem_ctrls2.rdQLenPdf::4                  26957                       # What read queue length does an incoming req see
system.mem_ctrls2.rdQLenPdf::5                  27226                       # What read queue length does an incoming req see
system.mem_ctrls2.rdQLenPdf::6                  27002                       # What read queue length does an incoming req see
system.mem_ctrls2.rdQLenPdf::7                  26758                       # What read queue length does an incoming req see
system.mem_ctrls2.rdQLenPdf::8                  26209                       # What read queue length does an incoming req see
system.mem_ctrls2.rdQLenPdf::9                  25309                       # What read queue length does an incoming req see
system.mem_ctrls2.rdQLenPdf::10                 24411                       # What read queue length does an incoming req see
system.mem_ctrls2.rdQLenPdf::11                 23823                       # What read queue length does an incoming req see
system.mem_ctrls2.rdQLenPdf::12                 22909                       # What read queue length does an incoming req see
system.mem_ctrls2.rdQLenPdf::13                 21616                       # What read queue length does an incoming req see
system.mem_ctrls2.rdQLenPdf::14                 20559                       # What read queue length does an incoming req see
system.mem_ctrls2.rdQLenPdf::15                 19312                       # What read queue length does an incoming req see
system.mem_ctrls2.rdQLenPdf::16                 18140                       # What read queue length does an incoming req see
system.mem_ctrls2.rdQLenPdf::17                 17029                       # What read queue length does an incoming req see
system.mem_ctrls2.rdQLenPdf::18                 16118                       # What read queue length does an incoming req see
system.mem_ctrls2.rdQLenPdf::19                 14933                       # What read queue length does an incoming req see
system.mem_ctrls2.rdQLenPdf::20                 13965                       # What read queue length does an incoming req see
system.mem_ctrls2.rdQLenPdf::21                 13127                       # What read queue length does an incoming req see
system.mem_ctrls2.rdQLenPdf::22                 12144                       # What read queue length does an incoming req see
system.mem_ctrls2.rdQLenPdf::23                 11465                       # What read queue length does an incoming req see
system.mem_ctrls2.rdQLenPdf::24                 10636                       # What read queue length does an incoming req see
system.mem_ctrls2.rdQLenPdf::25                 10117                       # What read queue length does an incoming req see
system.mem_ctrls2.rdQLenPdf::26                  9537                       # What read queue length does an incoming req see
system.mem_ctrls2.rdQLenPdf::27                  8945                       # What read queue length does an incoming req see
system.mem_ctrls2.rdQLenPdf::28                  8509                       # What read queue length does an incoming req see
system.mem_ctrls2.rdQLenPdf::29                  8296                       # What read queue length does an incoming req see
system.mem_ctrls2.rdQLenPdf::30                  8174                       # What read queue length does an incoming req see
system.mem_ctrls2.rdQLenPdf::31                131600                       # What read queue length does an incoming req see
system.mem_ctrls2.wrQLenPdf::0                  46091                       # What write queue length does an incoming req see
system.mem_ctrls2.wrQLenPdf::1                  50282                       # What write queue length does an incoming req see
system.mem_ctrls2.wrQLenPdf::2                  53016                       # What write queue length does an incoming req see
system.mem_ctrls2.wrQLenPdf::3                  55355                       # What write queue length does an incoming req see
system.mem_ctrls2.wrQLenPdf::4                  57074                       # What write queue length does an incoming req see
system.mem_ctrls2.wrQLenPdf::5                  23237                       # What write queue length does an incoming req see
system.mem_ctrls2.wrQLenPdf::6                  23339                       # What write queue length does an incoming req see
system.mem_ctrls2.wrQLenPdf::7                  45614                       # What write queue length does an incoming req see
system.mem_ctrls2.bytesPerActivate::samples       356679                       # Bytes accessed per row activation
system.mem_ctrls2.bytesPerActivate::mean   217.954093                       # Bytes accessed per row activation
system.mem_ctrls2.bytesPerActivate::gmean   161.069739                       # Bytes accessed per row activation
system.mem_ctrls2.bytesPerActivate::stdev   177.545198                       # Bytes accessed per row activation
system.mem_ctrls2.bytesPerActivate::0-127       116127     32.56%     32.56% # Bytes accessed per row activation
system.mem_ctrls2.bytesPerActivate::128-255       102748     28.81%     61.36% # Bytes accessed per row activation
system.mem_ctrls2.bytesPerActivate::256-383        79073     22.17%     83.53% # Bytes accessed per row activation
system.mem_ctrls2.bytesPerActivate::384-511        24895      6.98%     90.51% # Bytes accessed per row activation
system.mem_ctrls2.bytesPerActivate::512-639        20090      5.63%     96.15% # Bytes accessed per row activation
system.mem_ctrls2.bytesPerActivate::640-767         6048      1.70%     97.84% # Bytes accessed per row activation
system.mem_ctrls2.bytesPerActivate::768-895         3960      1.11%     98.95% # Bytes accessed per row activation
system.mem_ctrls2.bytesPerActivate::896-1023         2976      0.83%     99.79% # Bytes accessed per row activation
system.mem_ctrls2.bytesPerActivate::1024-1151          762      0.21%    100.00% # Bytes accessed per row activation
system.mem_ctrls2.bytesPerActivate::total       356679                       # Bytes accessed per row activation
system.mem_ctrls2.rdPerTurnAround::samples        49111                       # Reads before turning the bus around for writes
system.mem_ctrls2.rdPerTurnAround::mean     17.525055                       # Reads before turning the bus around for writes
system.mem_ctrls2.rdPerTurnAround::stdev    32.964236                       # Reads before turning the bus around for writes
system.mem_ctrls2.rdPerTurnAround::0-127        48660     99.08%     99.08% # Reads before turning the bus around for writes
system.mem_ctrls2.rdPerTurnAround::128-255          392      0.80%     99.88% # Reads before turning the bus around for writes
system.mem_ctrls2.rdPerTurnAround::256-383           31      0.06%     99.94% # Reads before turning the bus around for writes
system.mem_ctrls2.rdPerTurnAround::384-511            8      0.02%     99.96% # Reads before turning the bus around for writes
system.mem_ctrls2.rdPerTurnAround::512-639            5      0.01%     99.97% # Reads before turning the bus around for writes
system.mem_ctrls2.rdPerTurnAround::640-767            5      0.01%     99.98% # Reads before turning the bus around for writes
system.mem_ctrls2.rdPerTurnAround::768-895            2      0.00%     99.98% # Reads before turning the bus around for writes
system.mem_ctrls2.rdPerTurnAround::896-1023            3      0.01%     99.99% # Reads before turning the bus around for writes
system.mem_ctrls2.rdPerTurnAround::1024-1151            2      0.00%     99.99% # Reads before turning the bus around for writes
system.mem_ctrls2.rdPerTurnAround::1152-1279            1      0.00%    100.00% # Reads before turning the bus around for writes
system.mem_ctrls2.rdPerTurnAround::1536-1663            1      0.00%    100.00% # Reads before turning the bus around for writes
system.mem_ctrls2.rdPerTurnAround::2816-2943            1      0.00%    100.00% # Reads before turning the bus around for writes
system.mem_ctrls2.rdPerTurnAround::total        49111                       # Reads before turning the bus around for writes
system.mem_ctrls2.wrPerTurnAround::samples        49111                       # Writes before turning the bus around for reads
system.mem_ctrls2.wrPerTurnAround::mean      7.208263                       # Writes before turning the bus around for reads
system.mem_ctrls2.wrPerTurnAround::gmean     6.553955                       # Writes before turning the bus around for reads
system.mem_ctrls2.wrPerTurnAround::stdev     3.588217                       # Writes before turning the bus around for reads
system.mem_ctrls2.wrPerTurnAround::4-7          34909     71.08%     71.08% # Writes before turning the bus around for reads
system.mem_ctrls2.wrPerTurnAround::8-11          6532     13.30%     84.38% # Writes before turning the bus around for reads
system.mem_ctrls2.wrPerTurnAround::12-15         3968      8.08%     92.46% # Writes before turning the bus around for reads
system.mem_ctrls2.wrPerTurnAround::16-19         3702      7.54%    100.00% # Writes before turning the bus around for reads
system.mem_ctrls2.wrPerTurnAround::total        49111                       # Writes before turning the bus around for reads
system.mem_ctrls2.totQLat                111359609816                       # Total ticks spent queuing
system.mem_ctrls2.totMemAccLat           127497322316                       # Total ticks spent from burst creation until serviced by the DRAM
system.mem_ctrls2.totBusLat                4303390000                       # Total ticks spent in databus transfers
system.mem_ctrls2.avgQLat                   129385.91                       # Average queueing delay per DRAM burst
system.mem_ctrls2.avgBusLat                   5000.00                       # Average bus latency per DRAM burst
system.mem_ctrls2.avgMemAccLat              148135.91                       # Average memory access latency per DRAM burst
system.mem_ctrls2.avgRdBW                      450.83                       # Average DRAM read bandwidth in MiByte/s
system.mem_ctrls2.avgWrBW                      185.43                       # Average achieved write bandwidth in MiByte/s
system.mem_ctrls2.avgRdBWSys                   450.88                       # Average system read bandwidth in MiByte/s
system.mem_ctrls2.avgWrBWSys                   185.43                       # Average system write bandwidth in MiByte/s
system.mem_ctrls2.peakBW                     12800.00                       # Theoretical peak bandwidth in MiByte/s
system.mem_ctrls2.busUtil                        4.97                       # Data bus utilization in percentage
system.mem_ctrls2.busUtilRead                    3.52                       # Data bus utilization in percentage for reads
system.mem_ctrls2.busUtilWrite                   1.45                       # Data bus utilization in percentage for writes
system.mem_ctrls2.avgRdQLen                      2.28                       # Average read queue length when enqueuing
system.mem_ctrls2.avgWrQLen                      3.09                       # Average write queue length when enqueuing
system.mem_ctrls2.readRowHits                  666472                       # Number of row buffer hits during reads
system.mem_ctrls2.writeRowHits                 191531                       # Number of row buffer hits during writes
system.mem_ctrls2.readRowHitRate                77.44                       # Row buffer hit rate for reads
system.mem_ctrls2.writeRowHitRate               54.10                       # Row buffer hit rate for writes
system.mem_ctrls2.avgGap                    100579.78                       # Average gap between requests
system.mem_ctrls2.pageHitRate                   70.64                       # Row buffer hit rate, read and write combined
system.mem_ctrls2.memoryStateTime::IDLE   20826767000                       # Time in different power states
system.mem_ctrls2.memoryStateTime::REF     4079920000                       # Time in different power states
system.mem_ctrls2.memoryStateTime::PRE_PDN            0                       # Time in different power states
system.mem_ctrls2.memoryStateTime::ACT    97275937000                       # Time in different power states
system.mem_ctrls2.memoryStateTime::ACT_PDN            0                       # Time in different power states
system.mem_ctrls2.actEnergy::0             1361162880                       # Energy for activate commands per rank (pJ)
system.mem_ctrls2.actEnergy::1             1335330360                       # Energy for activate commands per rank (pJ)
system.mem_ctrls2.preEnergy::0              742698000                       # Energy for precharge commands per rank (pJ)
system.mem_ctrls2.preEnergy::1              728602875                       # Energy for precharge commands per rank (pJ)
system.mem_ctrls2.readEnergy::0            3373523400                       # Energy for read commands per rank (pJ)
system.mem_ctrls2.readEnergy::1            3339757200                       # Energy for read commands per rank (pJ)
system.mem_ctrls2.writeEnergy::0           1153919520                       # Energy for write commands per rank (pJ)
system.mem_ctrls2.writeEnergy::1           1140032880                       # Energy for write commands per rank (pJ)
system.mem_ctrls2.refreshEnergy::0         7980323520                       # Energy for refresh commands per rank (pJ)
system.mem_ctrls2.refreshEnergy::1         7980323520                       # Energy for refresh commands per rank (pJ)
system.mem_ctrls2.actBackEnergy::0        50081506155                       # Energy for active background per rank (pJ)
system.mem_ctrls2.actBackEnergy::1        49577210910                       # Energy for active background per rank (pJ)
system.mem_ctrls2.preBackEnergy::0        29378111250                       # Energy for precharge background per rank (pJ)
system.mem_ctrls2.preBackEnergy::1        29820475500                       # Energy for precharge background per rank (pJ)
system.mem_ctrls2.totalEnergy::0          94071244725                       # Total energy per rank (pJ)
system.mem_ctrls2.totalEnergy::1          93921733245                       # Total energy per rank (pJ)
system.mem_ctrls2.averagePower::0          769.926598                       # Core power per rank (mW)
system.mem_ctrls2.averagePower::1          768.702920                       # Core power per rank (mW)
system.mem_ctrls3.bytes_read::ruby.dir_cntrl3     55096576                       # Number of bytes read from this memory
system.mem_ctrls3.bytes_read::total          55096576                       # Number of bytes read from this memory
system.mem_ctrls3.bytes_written::ruby.dir_cntrl3     22646784                       # Number of bytes written to this memory
system.mem_ctrls3.bytes_written::total       22646784                       # Number of bytes written to this memory
system.mem_ctrls3.num_reads::ruby.dir_cntrl3       860884                       # Number of read requests responded to by this memory
system.mem_ctrls3.num_reads::total             860884                       # Number of read requests responded to by this memory
system.mem_ctrls3.num_writes::ruby.dir_cntrl3       353856                       # Number of write requests responded to by this memory
system.mem_ctrls3.num_writes::total            353856                       # Number of write requests responded to by this memory
system.mem_ctrls3.bw_read::ruby.dir_cntrl3    450936187                       # Total read bandwidth from this memory (bytes/s)
system.mem_ctrls3.bw_read::total            450936187                       # Total read bandwidth from this memory (bytes/s)
system.mem_ctrls3.bw_write::ruby.dir_cntrl3    185351889                       # Write bandwidth from this memory (bytes/s)
system.mem_ctrls3.bw_write::total           185351889                       # Write bandwidth from this memory (bytes/s)
system.mem_ctrls3.bw_total::ruby.dir_cntrl3    636288075                       # Total bandwidth to/from this memory (bytes/s)
system.mem_ctrls3.bw_total::total           636288075                       # Total bandwidth to/from this memory (bytes/s)
system.mem_ctrls3.readReqs                     860885                       # Number of read requests accepted
system.mem_ctrls3.writeReqs                    353856                       # Number of write requests accepted
system.mem_ctrls3.readBursts                   860885                       # Number of DRAM read bursts, including those serviced by the write queue
system.mem_ctrls3.writeBursts                  353856                       # Number of DRAM write bursts, including those merged in the write queue
system.mem_ctrls3.bytesReadDRAM              55089920                       # Total number of bytes read from DRAM
system.mem_ctrls3.bytesReadWrQ                   6720                       # Total number of bytes read from write queue
system.mem_ctrls3.bytesWritten               22646656                       # Total number of bytes written to DRAM
system.mem_ctrls3.bytesReadSys               55096640                       # Total read bytes from the system interface side
system.mem_ctrls3.bytesWrittenSys            22646784                       # Total written bytes from the system interface side
system.mem_ctrls3.servicedByWrQ                   105                       # Number of DRAM read bursts serviced by the write queue
system.mem_ctrls3.mergedWrBursts                    0                       # Number of DRAM write bursts merged with an existing one
system.mem_ctrls3.neitherReadNorWriteReqs            0                       # Number of requests that are neither read nor write
system.mem_ctrls3.perBankRdBursts::0            55778                       # Per bank write bursts
system.mem_ctrls3.perBankRdBursts::1            54596                       # Per bank write bursts
system.mem_ctrls3.perBankRdBursts::2            53384                       # Per bank write bursts
system.mem_ctrls3.perBankRdBursts::3            53014                       # Per bank write bursts
system.mem_ctrls3.perBankRdBursts::4            52643                       # Per bank write bursts
system.mem_ctrls3.perBankRdBursts::5            52882                       # Per bank write bursts
system.mem_ctrls3.perBankRdBursts::6            55297                       # Per bank write bursts
system.mem_ctrls3.perBankRdBursts::7            54845                       # Per bank write bursts
system.mem_ctrls3.perBankRdBursts::8            54578                       # Per bank write bursts
system.mem_ctrls3.perBankRdBursts::9            53805                       # Per bank write bursts
system.mem_ctrls3.perBankRdBursts::10           52933                       # Per bank write bursts
system.mem_ctrls3.perBankRdBursts::11           52699                       # Per bank write bursts
system.mem_ctrls3.perBankRdBursts::12           52141                       # Per bank write bursts
system.mem_ctrls3.perBankRdBursts::13           52695                       # Per bank write bursts
system.mem_ctrls3.perBankRdBursts::14           54295                       # Per bank write bursts
system.mem_ctrls3.perBankRdBursts::15           55195                       # Per bank write bursts
system.mem_ctrls3.perBankWrBursts::0            22419                       # Per bank write bursts
system.mem_ctrls3.perBankWrBursts::1            22252                       # Per bank write bursts
system.mem_ctrls3.perBankWrBursts::2            22209                       # Per bank write bursts
system.mem_ctrls3.perBankWrBursts::3            22016                       # Per bank write bursts
system.mem_ctrls3.perBankWrBursts::4            21956                       # Per bank write bursts
system.mem_ctrls3.perBankWrBursts::5            22009                       # Per bank write bursts
system.mem_ctrls3.perBankWrBursts::6            22475                       # Per bank write bursts
system.mem_ctrls3.perBankWrBursts::7            22660                       # Per bank write bursts
system.mem_ctrls3.perBankWrBursts::8            22237                       # Per bank write bursts
system.mem_ctrls3.perBankWrBursts::9            22055                       # Per bank write bursts
system.mem_ctrls3.perBankWrBursts::10           21771                       # Per bank write bursts
system.mem_ctrls3.perBankWrBursts::11           21728                       # Per bank write bursts
system.mem_ctrls3.perBankWrBursts::12           21660                       # Per bank write bursts
system.mem_ctrls3.perBankWrBursts::13           21740                       # Per bank write bursts
system.mem_ctrls3.perBankWrBursts::14           22235                       # Per bank write bursts
system.mem_ctrls3.perBankWrBursts::15           22432                       # Per bank write bursts
system.mem_ctrls3.numRdRetry                   126306                       # Number of times read queue was full causing retry
system.mem_ctrls3.numWrRetry                    27422                       # Number of times write queue was full causing retry
system.mem_ctrls3.totGap                 122181898000                       # Total gap between requests
system.mem_ctrls3.readPktSize::0                    0                       # Read request sizes (log2)
system.mem_ctrls3.readPktSize::1                    0                       # Read request sizes (log2)
system.mem_ctrls3.readPktSize::2                    0                       # Read request sizes (log2)
system.mem_ctrls3.readPktSize::3                    0                       # Read request sizes (log2)
system.mem_ctrls3.readPktSize::4                    0                       # Read request sizes (log2)
system.mem_ctrls3.readPktSize::5                    0                       # Read request sizes (log2)
system.mem_ctrls3.readPktSize::6               860885                       # Read request sizes (log2)
system.mem_ctrls3.writePktSize::0                   0                       # Write request sizes (log2)
system.mem_ctrls3.writePktSize::1                   0                       # Write request sizes (log2)
system.mem_ctrls3.writePktSize::2                   0                       # Write request sizes (log2)
system.mem_ctrls3.writePktSize::3                   0                       # Write request sizes (log2)
system.mem_ctrls3.writePktSize::4                   0                       # Write request sizes (log2)
system.mem_ctrls3.writePktSize::5                   0                       # Write request sizes (log2)
system.mem_ctrls3.writePktSize::6              353856                       # Write request sizes (log2)
system.mem_ctrls3.rdQLenPdf::0                 176364                       # What read queue length does an incoming req see
[...]
system.ruby.L2Cache_Controller.MT_MB.L1_PUTX::total          329                      
system.ruby.L2Cache_Controller.MT_MB.L1_PUTX_old |           1     12.50%     12.50% |           0      0.00%     12.50% |           0      0.00%     12.50% |           0      0.00%     12.50% |           0      0.00%     12.50% |           0      0.00%     12.50% |           0      0.00%     12.50% |           0      0.00%     12.50% |           0      0.00%     12.50% |           0      0.00%     12.50% |           0      0.00%     12.50% |           0      0.00%     12.50% |           0      0.00%     12.50% |           1     12.50%     25.00% |           0      0.00%     25.00% |           0      0.00%     25.00% |           0      0.00%     25.00% |           0      0.00%     25.00% |           0      0.00%     25.00% |           0      0.00%     25.00% |           0      0.00%     25.00% |           2     25.00%     50.00% |           1     12.50%     62.50% |           2     25.00%     87.50% |           0      0.00%     87.50% |           0      0.00%     87.50% |           0      0.00%     87.50% |           0      0.00%     87.50% |           0      0.00%     87.50% |           0      0.00%     87.50% |           0      0.00%     87.50% |           1     12.50%    100.00%
system.ruby.L2Cache_Controller.MT_MB.L1_PUTX_old::total            8                      
system.ruby.L2Cache_Controller.MT_MB.Exclusive_Unblock |      214519      5.27%      5.27% |      124309      3.05%      8.32% |      123142      3.02%     11.35% |      125326      3.08%     14.43% |      123433      3.03%     17.46% |      122560      3.01%     20.47% |      122524      3.01%     23.48% |      121761      2.99%     26.47% |      122084      3.00%     29.47% |      122521      3.01%     32.48% |      124937      3.07%     35.55% |      123866      3.04%     38.59% |      122862      3.02%     41.61% |      123307      3.03%     44.64% |      121994      3.00%     47.63% |      122055      3.00%     50.63% |      122938      3.02%     53.65% |      122761      3.02%     56.67% |      123233      3.03%     59.70% |      123601      3.04%     62.73% |      123976      3.05%     65.78% |      138648      3.41%     69.18% |      131954      3.24%     72.42% |      122711      3.01%     75.44% |      123219      3.03%     78.47% |      123405      3.03%     81.50% |      122980      3.02%     84.52% |      122774      3.02%     87.53% |      124141      3.05%     90.58% |      123142      3.02%     93.61% |      126545      3.11%     96.72% |      133621      3.28%    100.00%
system.ruby.L2Cache_Controller.MT_MB.Exclusive_Unblock::total      4070849                      
system.ruby.L2Cache_Controller.MT_IIB.L1_GETS |          13      6.40%      6.40% |          13      6.40%     12.81% |           9      4.43%     17.24% |           6      2.96%     20.20% |           6      2.96%     23.15% |           5      2.46%     25.62% |           8      3.94%     29.56% |           8      3.94%     33.50% |          12      5.91%     39.41% |           5      2.46%     41.87% |           9      4.43%     46.31% |           7      3.45%     49.75% |           2      0.99%     50.74% |           0      0.00%     50.74% |           3      1.48%     52.22% |           6      2.96%     55.17% |           5      2.46%     57.64% |           8      3.94%     61.58% |           8      3.94%     65.52% |           7      3.45%     68.97% |           3      1.48%     70.44% |           0      0.00%     70.44% |           3      1.48%     71.92% |           4      1.97%     73.89% |           8      3.94%     77.83% |          13      6.40%     84.24% |          14      6.90%     91.13% |           4      1.97%     93.10% |           4      1.97%     95.07% |           4      1.97%     97.04% |           3      1.48%     98.52% |           3      1.48%    100.00%
system.ruby.L2Cache_Controller.MT_IIB.L1_GETS::total          203                      
system.ruby.L2Cache_Controller.MT_IIB.L1_PUTX |          12      2.39%      2.39% |          18      3.59%      5.98% |          18      3.59%      9.56% |          25      4.98%     14.54% |          29      5.78%     20.32% |          20      3.98%     24.30% |          17      3.39%     27.69% |          11      2.19%     29.88% |          12      2.39%     32.27% |          14      2.79%     35.06% |          22      4.38%     39.44% |          37      7.37%     46.81% |          17      3.39%     50.20% |          22      4.38%     54.58% |          22      4.38%     58.96% |          13      2.59%     61.55% |          15      2.99%     64.54% |          10      1.99%     66.53% |          22      4.38%     70.92% |          17      3.39%     74.30% |          22      4.38%     78.69% |           8      1.59%     80.28% |          13      2.59%     82.87% |           8      1.59%     84.46% |           7      1.39%     85.86% |          15      2.99%     88.84% |          12      2.39%     91.24% |           8      1.59%     92.83% |          12      2.39%     95.22% |           7      1.39%     96.61% |           8      1.59%     98.21% |           9      1.79%    100.00%
system.ruby.L2Cache_Controller.MT_IIB.L1_PUTX::total          502                      
system.ruby.L2Cache_Controller.MT_IIB.WB_Data |           0      0.00%      0.00% |           0      0.00%      0.00% |           0      0.00%      0.00% |           0      0.00%      0.00% |           0      0.00%      0.00% |           0      0.00%      0.00% |           0      0.00%      0.00% |           0      0.00%      0.00% |           0      0.00%      0.00% |           0      0.00%      0.00% |           0      0.00%      0.00% |           0      0.00%      0.00% |           0      0.00%      0.00% |           0      0.00%      0.00% |           0      0.00%      0.00% |           0      0.00%      0.00% |           0      0.00%      0.00% |           0      0.00%      0.00% |           0      0.00%      0.00% |           0      0.00%      0.00% |           0      0.00%      0.00% |           2     40.00%     40.00% |           0      0.00%     40.00% |           0      0.00%     40.00% |           0      0.00%     40.00% |           0      0.00%     40.00% |           1     20.00%     60.00% |           0      0.00%     60.00% |           0      0.00%     60.00% |           0      0.00%     60.00% |           0      0.00%     60.00% |           2     40.00%    100.00%
system.ruby.L2Cache_Controller.MT_IIB.WB_Data::total            5                      
system.ruby.L2Cache_Controller.MT_IIB.WB_Data_clean |        2196      3.42%      3.42% |        2253      3.51%      6.93% |        2299      3.58%     10.52% |        2418      3.77%     14.28% |        2431      3.79%     18.07% |        2292      3.57%     21.65% |        2301      3.59%     25.23% |        2122      3.31%     28.54% |        1889      2.94%     31.48% |        1771      2.76%     34.24% |        1997      3.11%     37.35% |        2105      3.28%     40.63% |        2090      3.26%     43.89% |        1993      3.11%     47.00% |        2036      3.17%     50.17% |        1918      2.99%     53.16% |        1797      2.80%     55.96% |        1798      2.80%     58.76% |        1899      2.96%     61.72% |        1882      2.93%     64.65% |        1929      3.01%     67.66% |        1738      2.71%     70.37% |        1860      2.90%     73.27% |        1678      2.62%     75.88% |        1799      2.80%     78.69% |        1977      3.08%     81.77% |        1863      2.90%     84.67% |        1895      2.95%     87.62% |        2053      3.20%     90.82% |        2001      3.12%     93.94% |        1949      3.04%     96.98% |        1938      3.02%    100.00%
system.ruby.L2Cache_Controller.MT_IIB.WB_Data_clean::total        64167                      
system.ruby.L2Cache_Controller.MT_IIB.Unblock |          60      1.51%      1.51% |          64      1.61%      3.12% |          81      2.04%      5.16% |          78      1.96%      7.12% |         129      3.25%     10.37% |          96      2.42%     12.79% |          70      1.76%     14.55% |          74      1.86%     16.41% |         143      3.60%     20.01% |         117      2.94%     22.95% |         163      4.10%     27.06% |         146      3.67%     30.73% |         100      2.52%     33.25% |         117      2.94%     36.19% |         181      4.56%     40.75% |         120      3.02%     43.77% |         119      3.00%     46.77% |         116      2.92%     49.69% |         113      2.84%     52.53% |         139      3.50%     56.03% |         147      3.70%     59.73% |         117      2.94%     62.67% |         167      4.20%     66.88% |         158      3.98%     70.85% |         179      4.51%     75.36% |         135      3.40%     78.76% |         177      4.46%     83.21% |         164      4.13%     87.34% |         151      3.80%     91.14% |         136      3.42%     94.56% |         122      3.07%     97.63% |          94      2.37%    100.00%
system.ruby.L2Cache_Controller.MT_IIB.Unblock::total         3973                      
system.ruby.L2Cache_Controller.MT_IB.WB_Data_clean |          60      1.51%      1.51% |          64      1.61%      3.12% |          81      2.04%      5.16% |          78      1.96%      7.12% |         129      3.25%     10.37% |          96      2.42%     12.79% |          70      1.76%     14.55% |          74      1.86%     16.41% |         143      3.60%     20.01% |         117      2.94%     22.95% |         163      4.10%     27.06% |         146      3.67%     30.73% |         100      2.52%     33.25% |         117      2.94%     36.19% |         181      4.56%     40.75% |         120      3.02%     43.77% |         119      3.00%     46.77% |         116      2.92%     49.69% |         113      2.84%     52.53% |         139      3.50%     56.03% |         147      3.70%     59.73% |         117      2.94%     62.67% |         167      4.20%     66.88% |         158      3.98%     70.85% |         179      4.51%     75.36% |         135      3.40%     78.76% |         177      4.46%     83.21% |         164      4.13%     87.34% |         151      3.80%     91.14% |         136      3.42%     94.56% |         122      3.07%     97.63% |          94      2.37%    100.00%
system.ruby.L2Cache_Controller.MT_IB.WB_Data_clean::total         3973                      
system.ruby.L2Cache_Controller.MT_SB.L1_GETS |           1      5.56%      5.56% |           0      0.00%      5.56% |           0      0.00%      5.56% |           1      5.56%     11.11% |           0      0.00%     11.11% |           0      0.00%     11.11% |           0      0.00%     11.11% |           0      0.00%     11.11% |           0      0.00%     11.11% |           1      5.56%     16.67% |           0      0.00%     16.67% |           1      5.56%     22.22% |           0      0.00%     22.22% |           0      0.00%     22.22% |           0      0.00%     22.22% |           0      0.00%     22.22% |           0      0.00%     22.22% |           0      0.00%     22.22% |           2     11.11%     33.33% |           0      0.00%     33.33% |           1      5.56%     38.89% |           0      0.00%     38.89% |           0      0.00%     38.89% |           0      0.00%     38.89% |           4     22.22%     61.11% |           0      0.00%     61.11% |           3     16.67%     77.78% |           1      5.56%     83.33% |           0      0.00%     83.33% |           0      0.00%     83.33% |           1      5.56%     88.89% |           2     11.11%    100.00%
system.ruby.L2Cache_Controller.MT_SB.L1_GETS::total           18                      
system.ruby.L2Cache_Controller.MT_SB.L1_PUTX |           0      0.00%      0.00% |           1      4.00%      4.00% |           0      0.00%      4.00% |           1      4.00%      8.00% |           1      4.00%     12.00% |           0      0.00%     12.00% |           1      4.00%     16.00% |           0      0.00%     16.00% |           1      4.00%     20.00% |           0      0.00%     20.00% |           4     16.00%     36.00% |           2      8.00%     44.00% |           3     12.00%     56.00% |           0      0.00%     56.00% |           0      0.00%     56.00% |           0      0.00%     56.00% |           0      0.00%     56.00% |           0      0.00%     56.00% |           0      0.00%     56.00% |           1      4.00%     60.00% |           2      8.00%     68.00% |           2      8.00%     76.00% |           0      0.00%     76.00% |           0      0.00%     76.00% |           1      4.00%     80.00% |           0      0.00%     80.00% |           2      8.00%     88.00% |           0      0.00%     88.00% |           0      0.00%     88.00% |           0      0.00%     88.00% |           1      4.00%     92.00% |           2      8.00%    100.00%
system.ruby.L2Cache_Controller.MT_SB.L1_PUTX::total           25                      
system.ruby.L2Cache_Controller.MT_SB.Unblock |        2196      3.42%      3.42% |        2253      3.51%      6.93% |        2299      3.58%     10.52% |        2418      3.77%     14.28% |        2431      3.79%     18.07% |        2292      3.57%     21.64% |        2301      3.59%     25.23% |        2122      3.31%     28.54% |        1889      2.94%     31.48% |        1771      2.76%     34.24% |        1997      3.11%     37.35% |        2105      3.28%     40.63% |        2090      3.26%     43.89% |        1993      3.11%     46.99% |        2036      3.17%     50.17% |        1918      2.99%     53.16% |        1797      2.80%     55.96% |        1798      2.80%     58.76% |        1899      2.96%     61.72% |        1882      2.93%     64.65% |        1929      3.01%     67.66% |        1740      2.71%     70.37% |        1860      2.90%     73.27% |        1678      2.61%     75.88% |        1799      2.80%     78.68% |        1977      3.08%     81.76% |        1864      2.90%     84.67% |        1895      2.95%     87.62% |        2053      3.20%     90.82% |        2001      3.12%     93.94% |        1949      3.04%     96.98% |        1940      3.02%    100.00%
system.ruby.L2Cache_Controller.MT_SB.Unblock::total        64172                      
system.ruby.SimicsNetworkPortInterface_Controller.MessageSend |      392329     20.34%     20.34% |      964347     50.00%     70.34% |       21043      1.09%     71.43% |       19751      1.02%     72.46% |       17601      0.91%     73.37% |       21787      1.13%     74.50% |       17628      0.91%     75.41% |       23650      1.23%     76.64% |       19487      1.01%     77.65% |       21407      1.11%     78.76% |       20562      1.07%     79.83% |       20537      1.06%     80.89% |       21008      1.09%     81.98% |       18088      0.94%     82.92% |       17809      0.92%     83.84% |       17680      0.92%     84.76% |       18197      0.94%     85.70% |       21404      1.11%     86.81% |       20273      1.05%     87.86% |       20705      1.07%     88.94% |       17227      0.89%     89.83% |       19284      1.00%     90.83% |       17653      0.92%     91.74% |       17709      0.92%     92.66% |       17612      0.91%     93.58% |       17727      0.92%     94.49% |       17352      0.90%     95.39% |       17457      0.91%     96.30% |       17544      0.91%     97.21% |       18075      0.94%     98.15% |       17971      0.93%     99.08% |       17790      0.92%    100.00%
system.ruby.SimicsNetworkPortInterface_Controller.MessageSend::total      1928694                      
system.ruby.SimicsNetworkPortInterface_Controller.MessageRecv |      392329     20.34%     20.34% |      964347     50.00%     70.34% |       21043      1.09%     71.43% |       19751      1.02%     72.46% |       17601      0.91%     73.37% |       21787      1.13%     74.50% |       17628      0.91%     75.41% |       23650      1.23%     76.64% |       19487      1.01%     77.65% |       21407      1.11%     78.76% |       20562      1.07%     79.83% |       20537      1.06%     80.89% |       21008      1.09%     81.98% |       18088      0.94%     82.92% |       17809      0.92%     83.84% |       17680      0.92%     84.76% |       18197      0.94%     85.70% |       21404      1.11%     86.81% |       20273      1.05%     87.86% |       20705      1.07%     88.94% |       17227      0.89%     89.83% |       19284      1.00%     90.83% |       17653      0.92%     91.74% |       17709      0.92%     92.66% |       17612      0.91%     93.58% |       17727      0.92%     94.49% |       17352      0.90%     95.39% |       17457      0.91%     96.30% |       17544      0.91%     97.21% |       18075      0.94%     98.15% |       17971      0.93%     99.08% |       17790      0.92%    100.00%
system.ruby.SimicsNetworkPortInterface_Controller.MessageRecv::total      1928694                      
system.ruby.SimicsNetworkPortInterface_Controller.A.MessageSend |      392329     20.34%     20.34% |      964347     50.00%     70.34% |       21043      1.09%     71.43% |       19751      1.02%     72.46% |       17601      0.91%     73.37% |       21787      1.13%     74.50% |       17628      0.91%     75.41% |       23650      1.23%     76.64% |       19487      1.01%     77.65% |       21407      1.11%     78.76% |       20562      1.07%     79.83% |       20537      1.06%     80.89% |       21008      1.09%     81.98% |       18088      0.94%     82.92% |       17809      0.92%     83.84% |       17680      0.92%     84.76% |       18197      0.94%     85.70% |       21404      1.11%     86.81% |       20273      1.05%     87.86% |       20705      1.07%     88.94% |       17227      0.89%     89.83% |       19284      1.00%     90.83% |       17653      0.92%     91.74% |       17709      0.92%     92.66% |       17612      0.91%     93.58% |       17727      0.92%     94.49% |       17352      0.90%     95.39% |       17457      0.91%     96.30% |       17544      0.91%     97.21% |       18075      0.94%     98.15% |       17971      0.93%     99.08% |       17790      0.92%    100.00%
system.ruby.SimicsNetworkPortInterface_Controller.A.MessageSend::total      1928694                      
system.ruby.SimicsNetworkPortInterface_Controller.A.MessageRecv |      392329     20.34%     20.34% |      964347     50.00%     70.34% |       21043      1.09%     71.43% |       19751      1.02%     72.46% |       17601      0.91%     73.37% |       21787      1.13%     74.50% |       17628      0.91%     75.41% |       23650      1.23%     76.64% |       19487      1.01%     77.65% |       21407      1.11%     78.76% |       20562      1.07%     79.83% |       20537      1.06%     80.89% |       21008      1.09%     81.98% |       18088      0.94%     82.92% |       17809      0.92%     83.84% |       17680      0.92%     84.76% |       18197      0.94%     85.70% |       21404      1.11%     86.81% |       20273      1.05%     87.86% |       20705      1.07%     88.94% |       17227      0.89%     89.83% |       19284      1.00%     90.83% |       17653      0.92%     91.74% |       17709      0.92%     92.66% |       17612      0.91%     93.58% |       17727      0.92%     94.49% |       17352      0.90%     95.39% |       17457      0.91%     96.30% |       17544      0.91%     97.21% |       18075      0.94%     98.15% |       17971      0.93%     99.08% |       17790      0.92%    100.00%
system.ruby.SimicsNetworkPortInterface_Controller.A.MessageRecv::total      1928694                      
system.switch_cpus.kern.inst.arm                    0                       # number of arm instructions executed
system.switch_cpus.kern.inst.quiesce                0                       # number of quiesce instructions executed

---------- End Simulation Statistics   ----------
