
---------- Begin Simulation Statistics ----------
sim_seconds                                  0.042246                       # Number of seconds simulated
sim_ticks                                 42246246500                       # Number of ticks simulated
final_tick                               5218414325000                       # Number of ticks from beginning of simulation (restored from checkpoints and never reset)
sim_freq                                 1000000000000                       # Frequency of simulated ticks
host_inst_rate                                  39774                       # Simulator instruction rate (inst/s)
host_op_rate                                    69856                       # Simulator op (including micro ops) rate (op/s)
host_tick_rate                               57370239                       # Simulator tick rate (ticks/s)
host_mem_usage                                4771300                       # Number of bytes of host memory used
host_seconds                                   736.38                       # Real time elapsed on the host
sim_insts                                    29288691                       # Number of instructions simulated
sim_ops                                      51440843                       # Number of ops (including micro ops) simulated
system.voltage_domain.voltage                       1                       # Voltage in Volts
system.clk_domain.clock                           500                       # Clock period in ticks
system.mem_ctrls0.bytes_read::ruby.dir_cntrl0      4969216                       # Number of bytes read from this memory
system.mem_ctrls0.bytes_read::total           4969216                       # Number of bytes read from this memory
system.mem_ctrls0.bytes_written::ruby.dir_cntrl0      3963008                       # Number of bytes written to this memory
system.mem_ctrls0.bytes_written::total        3963008                       # Number of bytes written to this memory
system.mem_ctrls0.num_reads::ruby.dir_cntrl0        77644                       # Number of read requests responded to by this memory
system.mem_ctrls0.num_reads::total              77644                       # Number of read requests responded to by this memory
system.mem_ctrls0.num_writes::ruby.dir_cntrl0        61922                       # Number of write requests responded to by this memory
system.mem_ctrls0.num_writes::total             61922                       # Number of write requests responded to by this memory
system.mem_ctrls0.bw_read::ruby.dir_cntrl0    117625030                       # Total read bandwidth from this memory (bytes/s)
system.mem_ctrls0.bw_read::total            117625030                       # Total read bandwidth from this memory (bytes/s)
system.mem_ctrls0.bw_write::ruby.dir_cntrl0     93807340                       # Write bandwidth from this memory (bytes/s)
system.mem_ctrls0.bw_write::total            93807340                       # Write bandwidth from this memory (bytes/s)
system.mem_ctrls0.bw_total::ruby.dir_cntrl0    211432370                       # Total bandwidth to/from this memory (bytes/s)
system.mem_ctrls0.bw_total::total           211432370                       # Total bandwidth to/from this memory (bytes/s)
system.mem_ctrls0.readReqs                      77644                       # Number of read requests accepted
system.mem_ctrls0.writeReqs                     61922                       # Number of write requests accepted
system.mem_ctrls0.readBursts                    77644                       # Number of DRAM read bursts, including those serviced by the write queue
system.mem_ctrls0.writeBursts                   61922                       # Number of DRAM write bursts, including those merged in the write queue
system.mem_ctrls0.bytesReadDRAM               4967936                       # Total number of bytes read from DRAM
system.mem_ctrls0.bytesReadWrQ                   1280                       # Total number of bytes read from write queue
system.mem_ctrls0.bytesWritten                3962944                       # Total number of bytes written to DRAM
system.mem_ctrls0.bytesReadSys                4969216                       # Total read bytes from the system interface side
system.mem_ctrls0.bytesWrittenSys             3963008                       # Total written bytes from the system interface side
system.mem_ctrls0.servicedByWrQ                    20                       # Number of DRAM read bursts serviced by the write queue
system.mem_ctrls0.mergedWrBursts                    0                       # Number of DRAM write bursts merged with an existing one
system.mem_ctrls0.neitherReadNorWriteReqs            0                       # Number of requests that are neither read nor write
system.mem_ctrls0.perBankRdBursts::0             4395                       # Per bank write bursts
system.mem_ctrls0.perBankRdBursts::1             4840                       # Per bank write bursts
system.mem_ctrls0.perBankRdBursts::2             4556                       # Per bank write bursts
system.mem_ctrls0.perBankRdBursts::3             4965                       # Per bank write bursts
system.mem_ctrls0.perBankRdBursts::4             4842                       # Per bank write bursts
system.mem_ctrls0.perBankRdBursts::5             5350                       # Per bank write bursts
system.mem_ctrls0.perBankRdBursts::6             4953                       # Per bank write bursts
system.mem_ctrls0.perBankRdBursts::7             5222                       # Per bank write bursts
system.mem_ctrls0.perBankRdBursts::8             5047                       # Per bank write bursts
system.mem_ctrls0.perBankRdBursts::9             5198                       # Per bank write bursts
system.mem_ctrls0.perBankRdBursts::10            4626                       # Per bank write bursts
system.mem_ctrls0.perBankRdBursts::11            4795                       # Per bank write bursts
system.mem_ctrls0.perBankRdBursts::12            4583                       # Per bank write bursts
system.mem_ctrls0.perBankRdBursts::13            4636                       # Per bank write bursts
system.mem_ctrls0.perBankRdBursts::14            4800                       # Per bank write bursts
system.mem_ctrls0.perBankRdBursts::15            4816                       # Per bank write bursts
system.mem_ctrls0.perBankWrBursts::0             3623                       # Per bank write bursts
system.mem_ctrls0.perBankWrBursts::1             3566                       # Per bank write bursts
system.mem_ctrls0.perBankWrBursts::2             3650                       # Per bank write bursts
system.mem_ctrls0.perBankWrBursts::3             3794                       # Per bank write bursts
system.mem_ctrls0.perBankWrBursts::4             3852                       # Per bank write bursts
system.mem_ctrls0.perBankWrBursts::5             4188                       # Per bank write bursts
system.mem_ctrls0.perBankWrBursts::6             3917                       # Per bank write bursts
system.mem_ctrls0.perBankWrBursts::7             4179                       # Per bank write bursts
system.mem_ctrls0.perBankWrBursts::8             4056                       # Per bank write bursts
system.mem_ctrls0.perBankWrBursts::9             4129                       # Per bank write bursts
system.mem_ctrls0.perBankWrBursts::10            3704                       # Per bank write bursts
system.mem_ctrls0.perBankWrBursts::11            3638                       # Per bank write bursts
system.mem_ctrls0.perBankWrBursts::12            3786                       # Per bank write bursts
system.mem_ctrls0.perBankWrBursts::13            3903                       # Per bank write bursts
system.mem_ctrls0.perBankWrBursts::14            4029                       # Per bank write bursts
system.mem_ctrls0.perBankWrBursts::15            3907                       # Per bank write bursts
system.mem_ctrls0.numRdRetry                        0                       # Number of times read queue was full causing retry
system.mem_ctrls0.numWrRetry                       22                       # Number of times write queue was full causing retry
system.mem_ctrls0.totGap                  42245981000                       # Total gap between requests
system.mem_ctrls0.readPktSize::0                    0                       # Read request sizes (log2)
system.mem_ctrls0.readPktSize::1                    0                       # Read request sizes (log2)
system.mem_ctrls0.readPktSize::2                    0                       # Read request sizes (log2)
system.mem_ctrls0.readPktSize::3                    0                       # Read request sizes (log2)
system.mem_ctrls0.readPktSize::4                    0                       # Read request sizes (log2)
system.mem_ctrls0.readPktSize::5                    0                       # Read request sizes (log2)
system.mem_ctrls0.readPktSize::6                77644                       # Read request sizes (log2)
system.mem_ctrls0.writePktSize::0                   0                       # Write request sizes (log2)
system.mem_ctrls0.writePktSize::1                   0                       # Write request sizes (log2)
system.mem_ctrls0.writePktSize::2                   0                       # Write request sizes (log2)
system.mem_ctrls0.writePktSize::3                   0                       # Write request sizes (log2)
system.mem_ctrls0.writePktSize::4                   0                       # Write request sizes (log2)
system.mem_ctrls0.writePktSize::5                   0                       # Write request sizes (log2)
system.mem_ctrls0.writePktSize::6               61922                       # Write request sizes (log2)
system.mem_ctrls0.rdQLenPdf::0                  68492                       # What read queue length does an incoming req see
system.mem_ctrls0.rdQLenPdf::1                   7345                       # What read queue length does an incoming req see
system.mem_ctrls0.rdQLenPdf::2                   1255                       # What read queue length does an incoming req see
system.mem_ctrls0.rdQLenPdf::3                    271                       # What read queue length does an incoming req see
system.mem_ctrls0.rdQLenPdf::4                     95                       # What read queue length does an incoming req see
system.mem_ctrls0.rdQLenPdf::5                     50                       # What read queue length does an incoming req see
system.mem_ctrls0.rdQLenPdf::6                     30                       # What read queue length does an incoming req see
system.mem_ctrls0.rdQLenPdf::7                     25                       # What read queue length does an incoming req see
system.mem_ctrls0.rdQLenPdf::8                     19                       # What read queue length does an incoming req see
system.mem_ctrls0.rdQLenPdf::9                     14                       # What read queue length does an incoming req see
system.mem_ctrls0.rdQLenPdf::10                     8                       # What read queue length does an incoming req see
system.mem_ctrls0.rdQLenPdf::11                     6                       # What read queue length does an incoming req see
system.mem_ctrls0.rdQLenPdf::12                     5                       # What read queue length does an incoming req see
system.mem_ctrls0.rdQLenPdf::13                     3                       # What read queue length does an incoming req see
system.mem_ctrls0.rdQLenPdf::14                     3                       # What read queue length does an incoming req see
system.mem_ctrls0.rdQLenPdf::15                     3                       # What read queue length does an incoming req see
system.mem_ctrls0.rdQLenPdf::16                     0                       # What read queue length does an incoming req see
system.mem_ctrls0.rdQLenPdf::17                     0                       # What read queue length does an incoming req see
system.mem_ctrls0.rdQLenPdf::18                     0                       # What read queue length does an incoming req see
system.mem_ctrls0.rdQLenPdf::19                     0                       # What read queue length does an incoming req see
system.mem_ctrls0.rdQLenPdf::20                     0                       # What read queue length does an incoming req see
system.mem_ctrls0.rdQLenPdf::21                     0                       # What read queue length does an incoming req see
system.mem_ctrls0.rdQLenPdf::22                     0                       # What read queue length does an incoming req see
system.mem_ctrls0.rdQLenPdf::23                     0                       # What read queue length does an incoming req see
system.mem_ctrls0.rdQLenPdf::24                     0                       # What read queue length does an incoming req see
system.mem_ctrls0.rdQLenPdf::25                     0                       # What read queue length does an incoming req see
system.mem_ctrls0.rdQLenPdf::26                     0                       # What read queue length does an incoming req see
system.mem_ctrls0.rdQLenPdf::27                     0                       # What read queue length does an incoming req see
system.mem_ctrls0.rdQLenPdf::28                     0                       # What read queue length does an incoming req see
system.mem_ctrls0.rdQLenPdf::29                     0                       # What read queue length does an incoming req see
system.mem_ctrls0.rdQLenPdf::30                     0                       # What read queue length does an incoming req see
system.mem_ctrls0.rdQLenPdf::31                     0                       # What read queue length does an incoming req see
system.mem_ctrls0.wrQLenPdf::0                  12068                       # What write queue length does an incoming req see
system.mem_ctrls0.wrQLenPdf::1                  12615                       # What write queue length does an incoming req see
system.mem_ctrls0.wrQLenPdf::2                  12494                       # What write queue length does an incoming req see
system.mem_ctrls0.wrQLenPdf::3                  12341                       # What write queue length does an incoming req see
system.mem_ctrls0.wrQLenPdf::4                  12208                       # What write queue length does an incoming req see
system.mem_ctrls0.wrQLenPdf::5                    116                       # What write queue length does an incoming req see
system.mem_ctrls0.wrQLenPdf::6                     38                       # What write queue length does an incoming req see
system.mem_ctrls0.wrQLenPdf::7                     42                       # What write queue length does an incoming req see
system.mem_ctrls0.bytesPerActivate::samples        47982                       # Bytes accessed per row activation
system.mem_ctrls0.bytesPerActivate::mean   186.108457                       # Bytes accessed per row activation
system.mem_ctrls0.bytesPerActivate::gmean   134.019383                       # Bytes accessed per row activation
system.mem_ctrls0.bytesPerActivate::stdev   181.720271                       # Bytes accessed per row activation
system.mem_ctrls0.bytesPerActivate::0-127        20322     42.35%     42.35% # Bytes accessed per row activation
system.mem_ctrls0.bytesPerActivate::128-255        14243     29.68%     72.04% # Bytes accessed per row activation
system.mem_ctrls0.bytesPerActivate::256-383         8505     17.73%     89.76% # Bytes accessed per row activation
system.mem_ctrls0.bytesPerActivate::384-511         1949      4.06%     93.82% # Bytes accessed per row activation
system.mem_ctrls0.bytesPerActivate::512-639         1037      2.16%     95.99% # Bytes accessed per row activation
system.mem_ctrls0.bytesPerActivate::640-767          538      1.12%     97.11% # Bytes accessed per row activation
system.mem_ctrls0.bytesPerActivate::768-895          389      0.81%     97.92% # Bytes accessed per row activation
system.mem_ctrls0.bytesPerActivate::896-1023          374      0.78%     98.70% # Bytes accessed per row activation
system.mem_ctrls0.bytesPerActivate::1024-1151          625      1.30%    100.00% # Bytes accessed per row activation
system.mem_ctrls0.bytesPerActivate::total        47982                       # Bytes accessed per row activation
system.mem_ctrls0.rdPerTurnAround::samples        12071                       # Reads before turning the bus around for writes
system.mem_ctrls0.rdPerTurnAround::mean      6.430453                       # Reads before turning the bus around for writes
system.mem_ctrls0.rdPerTurnAround::stdev    36.737865                       # Reads before turning the bus around for writes
system.mem_ctrls0.rdPerTurnAround::0-127        12065     99.95%     99.95% # Reads before turning the bus around for writes
system.mem_ctrls0.rdPerTurnAround::128-255            5      0.04%     99.99% # Reads before turning the bus around for writes
system.mem_ctrls0.rdPerTurnAround::3968-4095            1      0.01%    100.00% # Reads before turning the bus around for writes
system.mem_ctrls0.rdPerTurnAround::total        12071                       # Reads before turning the bus around for writes
system.mem_ctrls0.wrPerTurnAround::samples        12071                       # Writes before turning the bus around for reads
system.mem_ctrls0.wrPerTurnAround::mean      5.129732                       # Writes before turning the bus around for reads
system.mem_ctrls0.wrPerTurnAround::gmean     5.110293                       # Writes before turning the bus around for reads
system.mem_ctrls0.wrPerTurnAround::stdev     0.537017                       # Writes before turning the bus around for reads
system.mem_ctrls0.wrPerTurnAround::4-7          11974     99.20%     99.20% # Writes before turning the bus around for reads
system.mem_ctrls0.wrPerTurnAround::8-11            84      0.70%     99.89% # Writes before turning the bus around for reads
system.mem_ctrls0.wrPerTurnAround::12-15            8      0.07%     99.96% # Writes before turning the bus around for reads
system.mem_ctrls0.wrPerTurnAround::16-19            5      0.04%    100.00% # Writes before turning the bus around for reads
system.mem_ctrls0.wrPerTurnAround::total        12071                       # Writes before turning the bus around for reads
system.mem_ctrls0.totQLat                  1138939739                       # Total ticks spent queuing
system.mem_ctrls0.totMemAccLat             2594389739                       # Total ticks spent from burst creation until serviced by the DRAM
system.mem_ctrls0.totBusLat                 388120000                       # Total ticks spent in databus transfers
system.mem_ctrls0.avgQLat                    14672.52                       # Average queueing delay per DRAM burst
system.mem_ctrls0.avgBusLat                   5000.00                       # Average bus latency per DRAM burst
system.mem_ctrls0.avgMemAccLat               33422.52                       # Average memory access latency per DRAM burst
system.mem_ctrls0.avgRdBW                      117.59                       # Average DRAM read bandwidth in MiByte/s
system.mem_ctrls0.avgWrBW                       93.81                       # Average achieved write bandwidth in MiByte/s
system.mem_ctrls0.avgRdBWSys                   117.63                       # Average system read bandwidth in MiByte/s
system.mem_ctrls0.avgWrBWSys                    93.81                       # Average system write bandwidth in MiByte/s
system.mem_ctrls0.peakBW                     12800.00                       # Theoretical peak bandwidth in MiByte/s
system.mem_ctrls0.busUtil                        1.65                       # Data bus utilization in percentage
system.mem_ctrls0.busUtilRead                    0.92                       # Data bus utilization in percentage for reads
system.mem_ctrls0.busUtilWrite                   0.73                       # Data bus utilization in percentage for writes
system.mem_ctrls0.avgRdQLen                      1.07                       # Average read queue length when enqueuing
system.mem_ctrls0.avgWrQLen                      2.86                       # Average write queue length when enqueuing
system.mem_ctrls0.readRowHits                   55159                       # Number of row buffer hits during reads
system.mem_ctrls0.writeRowHits                  36395                       # Number of row buffer hits during writes
system.mem_ctrls0.readRowHitRate                71.06                       # Row buffer hit rate for reads
system.mem_ctrls0.writeRowHitRate               58.78                       # Row buffer hit rate for writes
system.mem_ctrls0.avgGap                    302695.36                       # Average gap between requests
system.mem_ctrls0.pageHitRate                   65.61                       # Row buffer hit rate, read and write combined
system.mem_ctrls0.memoryStateTime::IDLE    9153689000                       # Time in different power states
system.mem_ctrls0.memoryStateTime::REF     1410500000                       # Time in different power states
system.mem_ctrls0.memoryStateTime::PRE_PDN            0                       # Time in different power states
system.mem_ctrls0.memoryStateTime::ACT    31676831000                       # Time in different power states
system.mem_ctrls0.memoryStateTime::ACT_PDN            0                       # Time in different power states
system.mem_ctrls0.actEnergy::0              181961640                       # Energy for activate commands per rank (pJ)
system.mem_ctrls0.actEnergy::1              180721800                       # Energy for activate commands per rank (pJ)
system.mem_ctrls0.preEnergy::0               99284625                       # Energy for precharge commands per rank (pJ)
system.mem_ctrls0.preEnergy::1               98608125                       # Energy for precharge commands per rank (pJ)
system.mem_ctrls0.readEnergy::0             305097000                       # Energy for read commands per rank (pJ)
system.mem_ctrls0.readEnergy::1             300229800                       # Energy for read commands per rank (pJ)
system.mem_ctrls0.writeEnergy::0            199357200                       # Energy for write commands per rank (pJ)
system.mem_ctrls0.writeEnergy::1            201826080                       # Energy for write commands per rank (pJ)
system.mem_ctrls0.refreshEnergy::0         2758938000                       # Energy for refresh commands per rank (pJ)
system.mem_ctrls0.refreshEnergy::1         2758938000                       # Energy for refresh commands per rank (pJ)
system.mem_ctrls0.actBackEnergy::0        17518498560                       # Energy for active background per rank (pJ)
system.mem_ctrls0.actBackEnergy::1        17080954020                       # Energy for active background per rank (pJ)
system.mem_ctrls0.preBackEnergy::0         9977295750                       # Energy for precharge background per rank (pJ)
system.mem_ctrls0.preBackEnergy::1        10361106750                       # Energy for precharge background per rank (pJ)
system.mem_ctrls0.totalEnergy::0          31040432775                       # Total energy per rank (pJ)
system.mem_ctrls0.totalEnergy::1          30982384575                       # Total energy per rank (pJ)
system.mem_ctrls0.averagePower::0          734.847140                       # Core power per rank (mW)
system.mem_ctrls0.averagePower::1          733.472914                       # Core power per rank (mW)
system.mem_ctrls1.bytes_read::ruby.dir_cntrl1      4884608                       # Number of bytes read from this memory
system.mem_ctrls1.bytes_read::total           4884608                       # Number of bytes read from this memory
system.mem_ctrls1.bytes_written::ruby.dir_cntrl1      3885376                       # Number of bytes written to this memory
system.mem_ctrls1.bytes_written::total        3885376                       # Number of bytes written to this memory
system.mem_ctrls1.num_reads::ruby.dir_cntrl1        76322                       # Number of read requests responded to by this memory
system.mem_ctrls1.num_reads::total              76322                       # Number of read requests responded to by this memory
system.mem_ctrls1.num_writes::ruby.dir_cntrl1        60709                       # Number of write requests responded to by this memory
system.mem_ctrls1.num_writes::total             60709                       # Number of write requests responded to by this memory
system.mem_ctrls1.bw_read::ruby.dir_cntrl1    115622296                       # Total read bandwidth from this memory (bytes/s)
system.mem_ctrls1.bw_read::total            115622296                       # Total read bandwidth from this memory (bytes/s)
system.mem_ctrls1.bw_write::ruby.dir_cntrl1     91969733                       # Write bandwidth from this memory (bytes/s)
system.mem_ctrls1.bw_write::total            91969733                       # Write bandwidth from this memory (bytes/s)
system.mem_ctrls1.bw_total::ruby.dir_cntrl1    207592028                       # Total bandwidth to/from this memory (bytes/s)
system.mem_ctrls1.bw_total::total           207592028                       # Total bandwidth to/from this memory (bytes/s)
system.mem_ctrls1.readReqs                      76322                       # Number of read requests accepted
system.mem_ctrls1.writeReqs                     60709                       # Number of write requests accepted
system.mem_ctrls1.readBursts                    76322                       # Number of DRAM read bursts, including those serviced by the write queue
system.mem_ctrls1.writeBursts                   60709                       # Number of DRAM write bursts, including those merged in the write queue
system.mem_ctrls1.bytesReadDRAM               4883776                       # Total number of bytes read from DRAM
system.mem_ctrls1.bytesReadWrQ                    832                       # Total number of bytes read from write queue
system.mem_ctrls1.bytesWritten                3885376                       # Total number of bytes written to DRAM
system.mem_ctrls1.bytesReadSys                4884608                       # Total read bytes from the system interface side
system.mem_ctrls1.bytesWrittenSys             3885376                       # Total written bytes from the system interface side
system.mem_ctrls1.servicedByWrQ                    13                       # Number of DRAM read bursts serviced by the write queue
system.mem_ctrls1.mergedWrBursts                    0                       # Number of DRAM write bursts merged with an existing one
system.mem_ctrls1.neitherReadNorWriteReqs            0                       # Number of requests that are neither read nor write
system.mem_ctrls1.perBankRdBursts::0             4322                       # Per bank write bursts
system.mem_ctrls1.perBankRdBursts::1             4751                       # Per bank write bursts
system.mem_ctrls1.perBankRdBursts::2             4481                       # Per bank write bursts
system.mem_ctrls1.perBankRdBursts::3             4894                       # Per bank write bursts
system.mem_ctrls1.perBankRdBursts::4             4781                       # Per bank write bursts
system.mem_ctrls1.perBankRdBursts::5             5300                       # Per bank write bursts
system.mem_ctrls1.perBankRdBursts::6             4889                       # Per bank write bursts
system.mem_ctrls1.perBankRdBursts::7             5164                       # Per bank write bursts
system.mem_ctrls1.perBankRdBursts::8             4941                       # Per bank write bursts
system.mem_ctrls1.perBankRdBursts::9             5086                       # Per bank write bursts
system.mem_ctrls1.perBankRdBursts::10            4529                       # Per bank write bursts
system.mem_ctrls1.perBankRdBursts::11            4727                       # Per bank write bursts
system.mem_ctrls1.perBankRdBursts::12            4491                       # Per bank write bursts
system.mem_ctrls1.perBankRdBursts::13            4576                       # Per bank write bursts
system.mem_ctrls1.perBankRdBursts::14            4636                       # Per bank write bursts
system.mem_ctrls1.perBankRdBursts::15            4741                       # Per bank write bursts
system.mem_ctrls1.perBankWrBursts::0             3554                       # Per bank write bursts
system.mem_ctrls1.perBankWrBursts::1             3506                       # Per bank write bursts
system.mem_ctrls1.perBankWrBursts::2             3588                       # Per bank write bursts
system.mem_ctrls1.perBankWrBursts::3             3743                       # Per bank write bursts
system.mem_ctrls1.perBankWrBursts::4             3788                       # Per bank write bursts
system.mem_ctrls1.perBankWrBursts::5             4121                       # Per bank write bursts
system.mem_ctrls1.perBankWrBursts::6             3838                       # Per bank write bursts
system.mem_ctrls1.perBankWrBursts::7             4097                       # Per bank write bursts
system.mem_ctrls1.perBankWrBursts::8             3965                       # Per bank write bursts
system.mem_ctrls1.perBankWrBursts::9             4031                       # Per bank write bursts
system.mem_ctrls1.perBankWrBursts::10            3625                       # Per bank write bursts
system.mem_ctrls1.perBankWrBursts::11            3570                       # Per bank write bursts
system.mem_ctrls1.perBankWrBursts::12            3715                       # Per bank write bursts
system.mem_ctrls1.perBankWrBursts::13            3831                       # Per bank write bursts
system.mem_ctrls1.perBankWrBursts::14            3899                       # Per bank write bursts
system.mem_ctrls1.perBankWrBursts::15            3838                       # Per bank write bursts
system.mem_ctrls1.numRdRetry                        0                       # Number of times read queue was full causing retry
system.mem_ctrls1.numWrRetry                       15                       # Number of times write queue was full causing retry
system.mem_ctrls1.totGap                  42245528500                       # Total gap between requests
system.mem_ctrls1.readPktSize::0                    0                       # Read request sizes (log2)
system.mem_ctrls1.readPktSize::1                    0                       # Read request sizes (log2)
system.mem_ctrls1.readPktSize::2                    0                       # Read request sizes (log2)
system.mem_ctrls1.readPktSize::3                    0                       # Read request sizes (log2)
system.mem_ctrls1.readPktSize::4                    0                       # Read request sizes (log2)
system.mem_ctrls1.readPktSize::5                    0                       # Read request sizes (log2)
system.mem_ctrls1.readPktSize::6                76322                       # Read request sizes (log2)
system.mem_ctrls1.writePktSize::0                   0                       # Write request sizes (log2)
system.mem_ctrls1.writePktSize::1                   0                       # Write request sizes (log2)
system.mem_ctrls1.writePktSize::2                   0                       # Write request sizes (log2)
system.mem_ctrls1.writePktSize::3                   0                       # Write request sizes (log2)
system.mem_ctrls1.writePktSize::4                   0                       # Write request sizes (log2)
system.mem_ctrls1.writePktSize::5                   0                       # Write request sizes (log2)
system.mem_ctrls1.writePktSize::6               60709                       # Write request sizes (log2)
system.mem_ctrls1.rdQLenPdf::0                  67919                       # What read queue length does an incoming req see
system.mem_ctrls1.rdQLenPdf::1                   6804                       # What read queue length does an incoming req see
system.mem_ctrls1.rdQLenPdf::2                   1093                       # What read queue length does an incoming req see
system.mem_ctrls1.rdQLenPdf::3                    269                       # What read queue length does an incoming req see
system.mem_ctrls1.rdQLenPdf::4                     84                       # What read queue length does an incoming req see
system.mem_ctrls1.rdQLenPdf::5                     41                       # What read queue length does an incoming req see
system.mem_ctrls1.rdQLenPdf::6                     34                       # What read queue length does an incoming req see
system.mem_ctrls1.rdQLenPdf::7                     21                       # What read queue length does an incoming req see
system.mem_ctrls1.rdQLenPdf::8                     11                       # What read queue length does an incoming req see
system.mem_ctrls1.rdQLenPdf::9                     11                       # What read queue length does an incoming req see
system.mem_ctrls1.rdQLenPdf::10                     6                       # What read queue length does an incoming req see
system.mem_ctrls1.rdQLenPdf::11                     6                       # What read queue length does an incoming req see
system.mem_ctrls1.rdQLenPdf::12                     5                       # What read queue length does an incoming req see
system.mem_ctrls1.rdQLenPdf::13                     3                       # What read queue length does an incoming req see
system.mem_ctrls1.rdQLenPdf::14                     2                       # What read queue length does an incoming req see
system.mem_ctrls1.rdQLenPdf::15                     0                       # What read queue length does an incoming req see
system.mem_ctrls1.rdQLenPdf::16                     0                       # What read queue length does an incoming req see
system.mem_ctrls1.rdQLenPdf::17                     0                       # What read queue length does an incoming req see
system.mem_ctrls1.rdQLenPdf::18                     0                       # What read queue length does an incoming req see
system.mem_ctrls1.rdQLenPdf::19                     0                       # What read queue length does an incoming req see
system.mem_ctrls1.rdQLenPdf::20                     0                       # What read queue length does an incoming req see
system.mem_ctrls1.rdQLenPdf::21                     0                       # What read queue length does an incoming req see
system.mem_ctrls1.rdQLenPdf::22                     0                       # What read queue length does an incoming req see
system.mem_ctrls1.rdQLenPdf::23                     0                       # What read queue length does an incoming req see
system.mem_ctrls1.rdQLenPdf::24                     0                       # What read queue length does an incoming req see
system.mem_ctrls1.rdQLenPdf::25                     0                       # What read queue length does an incoming req see
system.mem_ctrls1.rdQLenPdf::26                     0                       # What read queue length does an incoming req see
system.mem_ctrls1.rdQLenPdf::27                     0                       # What read queue length does an incoming req see
system.mem_ctrls1.rdQLenPdf::28                     0                       # What read queue length does an incoming req see
system.mem_ctrls1.rdQLenPdf::29                     0                       # What read queue length does an incoming req see
system.mem_ctrls1.rdQLenPdf::30                     0                       # What read queue length does an incoming req see
system.mem_ctrls1.rdQLenPdf::31                     0                       # What read queue length does an incoming req see
system.mem_ctrls1.wrQLenPdf::0                  11851                       # What write queue length does an incoming req see
system.mem_ctrls1.wrQLenPdf::1                  12342                       # What write queue length does an incoming req see
system.mem_ctrls1.wrQLenPdf::2                  12235                       # What write queue length does an incoming req see
system.mem_ctrls1.wrQLenPdf::3                  12131                       # What write queue length does an incoming req see
system.mem_ctrls1.wrQLenPdf::4                  11970                       # What write queue length does an incoming req see
system.mem_ctrls1.wrQLenPdf::5                    109                       # What write queue length does an incoming req see
system.mem_ctrls1.wrQLenPdf::6                     35                       # What write queue length does an incoming req see
system.mem_ctrls1.wrQLenPdf::7                     36                       # What write queue length does an incoming req see
system.mem_ctrls1.bytesPerActivate::samples        45864                       # Bytes accessed per row activation
system.mem_ctrls1.bytesPerActivate::mean   191.175301                       # Bytes accessed per row activation
system.mem_ctrls1.bytesPerActivate::gmean   137.312435                       # Bytes accessed per row activation
system.mem_ctrls1.bytesPerActivate::stdev   185.698030                       # Bytes accessed per row activation
system.mem_ctrls1.bytesPerActivate::0-127        18762     40.91%     40.91% # Bytes accessed per row activation
system.mem_ctrls1.bytesPerActivate::128-255        13780     30.05%     70.95% # Bytes accessed per row activation
system.mem_ctrls1.bytesPerActivate::256-383         8308     18.11%     89.07% # Bytes accessed per row activation
system.mem_ctrls1.bytesPerActivate::384-511         1994      4.35%     93.42% # Bytes accessed per row activation
system.mem_ctrls1.bytesPerActivate::512-639         1055      2.30%     95.72% # Bytes accessed per row activation
system.mem_ctrls1.bytesPerActivate::640-767          563      1.23%     96.94% # Bytes accessed per row activation
system.mem_ctrls1.bytesPerActivate::768-895          384      0.84%     97.78% # Bytes accessed per row activation
system.mem_ctrls1.bytesPerActivate::896-1023          361      0.79%     98.57% # Bytes accessed per row activation
system.mem_ctrls1.bytesPerActivate::1024-1151          657      1.43%    100.00% # Bytes accessed per row activation
system.mem_ctrls1.bytesPerActivate::total        45864                       # Bytes accessed per row activation
system.mem_ctrls1.rdPerTurnAround::samples        11855                       # Reads before turning the bus around for writes
system.mem_ctrls1.rdPerTurnAround::mean      6.436862                       # Reads before turning the bus around for writes
system.mem_ctrls1.rdPerTurnAround::stdev    29.216096                       # Reads before turning the bus around for writes
system.mem_ctrls1.rdPerTurnAround::0-127        11850     99.96%     99.96% # Reads before turning the bus around for writes
system.mem_ctrls1.rdPerTurnAround::128-255            3      0.03%     99.98% # Reads before turning the bus around for writes
system.mem_ctrls1.rdPerTurnAround::1152-1279            1      0.01%     99.99% # Reads before turning the bus around for writes
system.mem_ctrls1.rdPerTurnAround::2816-2943            1      0.01%    100.00% # Reads before turning the bus around for writes
system.mem_ctrls1.rdPerTurnAround::total        11855                       # Reads before turning the bus around for writes
system.mem_ctrls1.wrPerTurnAround::samples        11855                       # Writes before turning the bus around for reads
system.mem_ctrls1.wrPerTurnAround::mean      5.120962                       # Writes before turning the bus around for reads
system.mem_ctrls1.wrPerTurnAround::gmean     5.103226                       # Writes before turning the bus around for reads
system.mem_ctrls1.wrPerTurnAround::stdev     0.510109                       # Writes before turning the bus around for reads
system.mem_ctrls1.wrPerTurnAround::4-7          11781     99.38%     99.38% # Writes before turning the bus around for reads
system.mem_ctrls1.wrPerTurnAround::8-11            62      0.52%     99.90% # Writes before turning the bus around for reads
system.mem_ctrls1.wrPerTurnAround::12-15            8      0.07%     99.97% # Writes before turning the bus around for reads
system.mem_ctrls1.wrPerTurnAround::16-19            4      0.03%    100.00% # Writes before turning the bus around for reads
system.mem_ctrls1.wrPerTurnAround::total        11855                       # Writes before turning the bus around for reads
system.mem_ctrls1.totQLat                  1072500733                       # Total ticks spent queuing
system.mem_ctrls1.totMemAccLat             2503294483                       # Total ticks spent from burst creation until serviced by the DRAM
system.mem_ctrls1.totBusLat                 381545000                       # Total ticks spent in databus transfers
system.mem_ctrls1.avgQLat                    14054.71                       # Average queueing delay per DRAM burst
system.mem_ctrls1.avgBusLat                   5000.00                       # Average bus latency per DRAM burst
system.mem_ctrls1.avgMemAccLat               32804.71                       # Average memory access latency per DRAM burst
system.mem_ctrls1.avgRdBW                      115.60                       # Average DRAM read bandwidth in MiByte/s
system.mem_ctrls1.avgWrBW                       91.97                       # Average achieved write bandwidth in MiByte/s
system.mem_ctrls1.avgRdBWSys                   115.62                       # Average system read bandwidth in MiByte/s
system.mem_ctrls1.avgWrBWSys                    91.97                       # Average system write bandwidth in MiByte/s
system.mem_ctrls1.peakBW                     12800.00                       # Theoretical peak bandwidth in MiByte/s
system.mem_ctrls1.busUtil                        1.62                       # Data bus utilization in percentage
system.mem_ctrls1.busUtilRead                    0.90                       # Data bus utilization in percentage for reads
system.mem_ctrls1.busUtilWrite                   0.72                       # Data bus utilization in percentage for writes
system.mem_ctrls1.avgRdQLen                      1.04                       # Average read queue length when enqueuing
system.mem_ctrls1.avgWrQLen                      2.92                       # Average write queue length when enqueuing
system.mem_ctrls1.readRowHits                   54496                       # Number of row buffer hits during reads
system.mem_ctrls1.writeRowHits                  36647                       # Number of row buffer hits during writes
system.mem_ctrls1.readRowHitRate                71.41                       # Row buffer hit rate for reads
system.mem_ctrls1.writeRowHitRate               60.37                       # Row buffer hit rate for writes
system.mem_ctrls1.avgGap                    308291.76                       # Average gap between requests
system.mem_ctrls1.pageHitRate                   66.52                       # Row buffer hit rate, read and write combined
system.mem_ctrls1.memoryStateTime::IDLE    9530785750                       # Time in different power states
system.mem_ctrls1.memoryStateTime::REF     1410500000                       # Time in different power states
system.mem_ctrls1.memoryStateTime::PRE_PDN            0                       # Time in different power states
system.mem_ctrls1.memoryStateTime::ACT    31299904250                       # Time in different power states
system.mem_ctrls1.memoryStateTime::ACT_PDN            0                       # Time in different power states
system.mem_ctrls1.actEnergy::0              175664160                       # Energy for activate commands per rank (pJ)
system.mem_ctrls1.actEnergy::1              170999640                       # Energy for activate commands per rank (pJ)
system.mem_ctrls1.preEnergy::0               95848500                       # Energy for precharge commands per rank (pJ)
system.mem_ctrls1.preEnergy::1               93303375                       # Energy for precharge commands per rank (pJ)
system.mem_ctrls1.readEnergy::0             300846000                       # Energy for read commands per rank (pJ)
system.mem_ctrls1.readEnergy::1             294184800                       # Energy for read commands per rank (pJ)
system.mem_ctrls1.writeEnergy::0            195916320                       # Energy for write commands per rank (pJ)
system.mem_ctrls1.writeEnergy::1            197380800                       # Energy for write commands per rank (pJ)
system.mem_ctrls1.refreshEnergy::0         2758938000                       # Energy for refresh commands per rank (pJ)
system.mem_ctrls1.refreshEnergy::1         2758938000                       # Energy for refresh commands per rank (pJ)
system.mem_ctrls1.actBackEnergy::0        17397192870                       # Energy for active background per rank (pJ)
system.mem_ctrls1.actBackEnergy::1        16662025395                       # Energy for active background per rank (pJ)
system.mem_ctrls1.preBackEnergy::0        10083704250                       # Energy for precharge background per rank (pJ)
system.mem_ctrls1.preBackEnergy::1        10728588000                       # Energy for precharge background per rank (pJ)
system.mem_ctrls1.totalEnergy::0          31008110100                       # Total energy per rank (pJ)
system.mem_ctrls1.totalEnergy::1          30905420010                       # Total energy per rank (pJ)
system.mem_ctrls1.averagePower::0          734.081937                       # Core power per rank (mW)
system.mem_ctrls1.averagePower::1          731.650865                       # Core power per rank (mW)
system.mem_ctrls2.bytes_read::ruby.dir_cntrl2      4884928                       # Number of bytes read from this memory
system.mem_ctrls2.bytes_read::total           4884928                       # Number of bytes read from this memory
system.mem_ctrls2.bytes_written::ruby.dir_cntrl2      3886720                       # Number of bytes written to this memory
system.mem_ctrls2.bytes_written::total        3886720                       # Number of bytes written to this memory
system.mem_ctrls2.num_reads::ruby.dir_cntrl2        76327                       # Number of read requests responded to by this memory
system.mem_ctrls2.num_reads::total              76327                       # Number of read requests responded to by this memory
system.mem_ctrls2.num_writes::ruby.dir_cntrl2        60730                       # Number of write requests responded to by this memory
system.mem_ctrls2.num_writes::total             60730                       # Number of write requests responded to by this memory
system.mem_ctrls2.bw_read::ruby.dir_cntrl2    115629870                       # Total read bandwidth from this memory (bytes/s)
system.mem_ctrls2.bw_read::total            115629870                       # Total read bandwidth from this memory (bytes/s)
system.mem_ctrls2.bw_write::ruby.dir_cntrl2     92001546                       # Write bandwidth from this memory (bytes/s)
system.mem_ctrls2.bw_write::total            92001546                       # Write bandwidth from this memory (bytes/s)
system.mem_ctrls2.bw_total::ruby.dir_cntrl2    207631416                       # Total bandwidth to/from this memory (bytes/s)
system.mem_ctrls2.bw_total::total           207631416                       # Total bandwidth to/from this memory (bytes/s)
system.mem_ctrls2.readReqs                      76327                       # Number of read requests accepted
system.mem_ctrls2.writeReqs                     60730                       # Number of write requests accepted
system.mem_ctrls2.readBursts                    76327                       # Number of DRAM read bursts, including those serviced by the write queue
system.mem_ctrls2.writeBursts                   60730                       # Number of DRAM write bursts, including those merged in the write queue
system.mem_ctrls2.bytesReadDRAM               4883968                       # Total number of bytes read from DRAM
system.mem_ctrls2.bytesReadWrQ                    960                       # Total number of bytes read from write queue
system.mem_ctrls2.bytesWritten                3886656                       # Total number of bytes written to DRAM
system.mem_ctrls2.bytesReadSys                4884928                       # Total read bytes from the system interface side
system.mem_ctrls2.bytesWrittenSys             3886720                       # Total written bytes from the system interface side
system.mem_ctrls2.servicedByWrQ                    15                       # Number of DRAM read bursts serviced by the write queue
system.mem_ctrls2.mergedWrBursts                    0                       # Number of DRAM write bursts merged with an existing one
system.mem_ctrls2.neitherReadNorWriteReqs            0                       # Number of requests that are neither read nor write
system.mem_ctrls2.perBankRdBursts::0             4319                       # Per bank write bursts
system.mem_ctrls2.perBankRdBursts::1             4753                       # Per bank write bursts
system.mem_ctrls2.perBankRdBursts::2             4491                       # Per bank write bursts
system.mem_ctrls2.perBankRdBursts::3             4903                       # Per bank write bursts
system.mem_ctrls2.perBankRdBursts::4             4779                       # Per bank write bursts
system.mem_ctrls2.perBankRdBursts::5             5299                       # Per bank write bursts
system.mem_ctrls2.perBankRdBursts::6             4867                       # Per bank write bursts
system.mem_ctrls2.perBankRdBursts::7             5162                       # Per bank write bursts
system.mem_ctrls2.perBankRdBursts::8             4924                       # Per bank write bursts
system.mem_ctrls2.perBankRdBursts::9             5097                       # Per bank write bursts
system.mem_ctrls2.perBankRdBursts::10            4532                       # Per bank write bursts
system.mem_ctrls2.perBankRdBursts::11            4769                       # Per bank write bursts
system.mem_ctrls2.perBankRdBursts::12            4493                       # Per bank write bursts
system.mem_ctrls2.perBankRdBursts::13            4547                       # Per bank write bursts
system.mem_ctrls2.perBankRdBursts::14            4624                       # Per bank write bursts
system.mem_ctrls2.perBankRdBursts::15            4753                       # Per bank write bursts
system.mem_ctrls2.perBankWrBursts::0             3556                       # Per bank write bursts
system.mem_ctrls2.perBankWrBursts::1             3506                       # Per bank write bursts
system.mem_ctrls2.perBankWrBursts::2             3586                       # Per bank write bursts
system.mem_ctrls2.perBankWrBursts::3             3732                       # Per bank write bursts
system.mem_ctrls2.perBankWrBursts::4             3787                       # Per bank write bursts
system.mem_ctrls2.perBankWrBursts::5             4119                       # Per bank write bursts
system.mem_ctrls2.perBankWrBursts::6             3844                       # Per bank write bursts
system.mem_ctrls2.perBankWrBursts::7             4109                       # Per bank write bursts
system.mem_ctrls2.perBankWrBursts::8             3968                       # Per bank write bursts
system.mem_ctrls2.perBankWrBursts::9             4041                       # Per bank write bursts
system.mem_ctrls2.perBankWrBursts::10            3625                       # Per bank write bursts
system.mem_ctrls2.perBankWrBursts::11            3578                       # Per bank write bursts
system.mem_ctrls2.perBankWrBursts::12            3720                       # Per bank write bursts
system.mem_ctrls2.perBankWrBursts::13            3826                       # Per bank write bursts
system.mem_ctrls2.perBankWrBursts::14            3895                       # Per bank write bursts
system.mem_ctrls2.perBankWrBursts::15            3837                       # Per bank write bursts
system.mem_ctrls2.numRdRetry                        0                       # Number of times read queue was full causing retry
system.mem_ctrls2.numWrRetry                        8                       # Number of times write queue was full causing retry
system.mem_ctrls2.totGap                  42246017000                       # Total gap between requests
system.mem_ctrls2.readPktSize::0                    0                       # Read request sizes (log2)
system.mem_ctrls2.readPktSize::1                    0                       # Read request sizes (log2)
system.mem_ctrls2.readPktSize::2                    0                       # Read request sizes (log2)
system.mem_ctrls2.readPktSize::3                    0                       # Read request sizes (log2)
system.mem_ctrls2.readPktSize::4                    0                       # Read request sizes (log2)
system.mem_ctrls2.readPktSize::5                    0                       # Read request sizes (log2)
system.mem_ctrls2.readPktSize::6                76327                       # Read request sizes (log2)
system.mem_ctrls2.writePktSize::0                   0                       # Write request sizes (log2)
system.mem_ctrls2.writePktSize::1                   0                       # Write request sizes (log2)
system.mem_ctrls2.writePktSize::2                   0                       # Write request sizes (log2)
system.mem_ctrls2.writePktSize::3                   0                       # Write request sizes (log2)
system.mem_ctrls2.writePktSize::4                   0                       # Write request sizes (log2)
system.mem_ctrls2.writePktSize::5                   0                       # Write request sizes (log2)
system.mem_ctrls2.writePktSize::6               60730                       # Write request sizes (log2)
system.mem_ctrls2.rdQLenPdf::0                  67956                       # What read queue length does an incoming req see
system.mem_ctrls2.rdQLenPdf::1                   6743                       # What read queue length does an incoming req see
system.mem_ctrls2.rdQLenPdf::2                   1109                       # What read queue length does an incoming req see
system.mem_ctrls2.rdQLenPdf::3                    284                       # What read queue length does an incoming req see
system.mem_ctrls2.rdQLenPdf::4                    102                       # What read queue length does an incoming req see
system.mem_ctrls2.rdQLenPdf::5                     55                       # What read queue length does an incoming req see
system.mem_ctrls2.rdQLenPdf::6                     26                       # What read queue length does an incoming req see
system.mem_ctrls2.rdQLenPdf::7                     15                       # What read queue length does an incoming req see
system.mem_ctrls2.rdQLenPdf::8                      9                       # What read queue length does an incoming req see
system.mem_ctrls2.rdQLenPdf::9                      5                       # What read queue length does an incoming req see
system.mem_ctrls2.rdQLenPdf::10                     5                       # What read queue length does an incoming req see
system.mem_ctrls2.rdQLenPdf::11                     2                       # What read queue length does an incoming req see
system.mem_ctrls2.rdQLenPdf::12                     1                       # What read queue length does an incoming req see
system.mem_ctrls2.rdQLenPdf::13                     0                       # What read queue length does an incoming req see
system.mem_ctrls2.rdQLenPdf::14                     0                       # What read queue length does an incoming req see
system.mem_ctrls2.rdQLenPdf::15                     0                       # What read queue length does an incoming req see
system.mem_ctrls2.rdQLenPdf::16                     0                       # What read queue length does an incoming req see
system.mem_ctrls2.rdQLenPdf::17                     0                       # What read queue length does an incoming req see
system.mem_ctrls2.rdQLenPdf::18                     0                       # What read queue length does an incoming req see
system.mem_ctrls2.rdQLenPdf::19                     0                       # What read queue length does an incoming req see
system.mem_ctrls2.rdQLenPdf::20                     0                       # What read queue length does an incoming req see
system.mem_ctrls2.rdQLenPdf::21                     0                       # What read queue length does an incoming req see
system.mem_ctrls2.rdQLenPdf::22                     0                       # What read queue length does an incoming req see
system.mem_ctrls2.rdQLenPdf::23                     0                       # What read queue length does an incoming req see
system.mem_ctrls2.rdQLenPdf::24                     0                       # What read queue length does an incoming req see
system.mem_ctrls2.rdQLenPdf::25                     0                       # What read queue length does an incoming req see
system.mem_ctrls2.rdQLenPdf::26                     0                       # What read queue length does an incoming req see
system.mem_ctrls2.rdQLenPdf::27                     0                       # What read queue length does an incoming req see
system.mem_ctrls2.rdQLenPdf::28                     0                       # What read queue length does an incoming req see
system.mem_ctrls2.rdQLenPdf::29                     0                       # What read queue length does an incoming req see
system.mem_ctrls2.rdQLenPdf::30                     0                       # What read queue length does an incoming req see
system.mem_ctrls2.rdQLenPdf::31                     0                       # What read queue length does an incoming req see
system.mem_ctrls2.wrQLenPdf::0                  11860                       # What write queue length does an incoming req see
system.mem_ctrls2.wrQLenPdf::1                  12341                       # What write queue length does an incoming req see
system.mem_ctrls2.wrQLenPdf::2                  12230                       # What write queue length does an incoming req see
system.mem_ctrls2.wrQLenPdf::3                  12134                       # What write queue length does an incoming req see
system.mem_ctrls2.wrQLenPdf::4                  11975                       # What write queue length does an incoming req see
system.mem_ctrls2.wrQLenPdf::5                    129                       # What write queue length does an incoming req see
system.mem_ctrls2.wrQLenPdf::6                     34                       # What write queue length does an incoming req see
system.mem_ctrls2.wrQLenPdf::7                     27                       # What write queue length does an incoming req see
system.mem_ctrls2.bytesPerActivate::samples        45909                       # Bytes accessed per row activation
system.mem_ctrls2.bytesPerActivate::mean   191.014398                       # Bytes accessed per row activation
system.mem_ctrls2.bytesPerActivate::gmean   137.217409                       # Bytes accessed per row activation
system.mem_ctrls2.bytesPerActivate::stdev   185.102708                       # Bytes accessed per row activation
system.mem_ctrls2.bytesPerActivate::0-127        18870     41.10%     41.10% # Bytes accessed per row activation
system.mem_ctrls2.bytesPerActivate::128-255        13706     29.85%     70.96% # Bytes accessed per row activation
system.mem_ctrls2.bytesPerActivate::256-383         8319     18.12%     89.08% # Bytes accessed per row activation
system.mem_ctrls2.bytesPerActivate::384-511         1981      4.32%     93.39% # Bytes accessed per row activation
system.mem_ctrls2.bytesPerActivate::512-639         1058      2.30%     95.70% # Bytes accessed per row activation
system.mem_ctrls2.bytesPerActivate::640-767          593      1.29%     96.99% # Bytes accessed per row activation
system.mem_ctrls2.bytesPerActivate::768-895          398      0.87%     97.86% # Bytes accessed per row activation
system.mem_ctrls2.bytesPerActivate::896-1023          333      0.73%     98.58% # Bytes accessed per row activation
system.mem_ctrls2.bytesPerActivate::1024-1151          651      1.42%    100.00% # Bytes accessed per row activation
system.mem_ctrls2.bytesPerActivate::total        45909                       # Bytes accessed per row activation
system.mem_ctrls2.rdPerTurnAround::samples        11860                       # Reads before turning the bus around for writes
system.mem_ctrls2.rdPerTurnAround::mean      6.434064                       # Reads before turning the bus around for writes
system.mem_ctrls2.rdPerTurnAround::stdev    29.282221                       # Reads before turning the bus around for writes
system.mem_ctrls2.rdPerTurnAround::0-127        11855     99.96%     99.96% # Reads before turning the bus around for writes
system.mem_ctrls2.rdPerTurnAround::128-255            3      0.03%     99.98% # Reads before turning the bus around for writes
system.mem_ctrls2.rdPerTurnAround::1152-1279            1      0.01%     99.99% # Reads before turning the bus around for writes
system.mem_ctrls2.rdPerTurnAround::2816-2943            1      0.01%    100.00% # Reads before turning the bus around for writes
system.mem_ctrls2.rdPerTurnAround::total        11860                       # Reads before turning the bus around for writes
system.mem_ctrls2.wrPerTurnAround::samples        11860                       # Writes before turning the bus around for reads
system.mem_ctrls2.wrPerTurnAround::mean      5.120489                       # Writes before turning the bus around for reads
system.mem_ctrls2.wrPerTurnAround::gmean     5.103411                       # Writes before turning the bus around for reads
system.mem_ctrls2.wrPerTurnAround::stdev     0.492530                       # Writes before turning the bus around for reads
system.mem_ctrls2.wrPerTurnAround::4-7          11772     99.26%     99.26% # Writes before turning the bus around for reads
system.mem_ctrls2.wrPerTurnAround::8-11            79      0.67%     99.92% # Writes before turning the bus around for reads
system.mem_ctrls2.wrPerTurnAround::12-15            7      0.06%     99.98% # Writes before turning the bus around for reads
system.mem_ctrls2.wrPerTurnAround::16-19            2      0.02%    100.00% # Writes before turning the bus around for reads
system.mem_ctrls2.wrPerTurnAround::total        11860                       # Writes before turning the bus around for reads
system.mem_ctrls2.totQLat                  1081206978                       # Total ticks spent queuing
system.mem_ctrls2.totMemAccLat             2512056978                       # Total ticks spent from burst creation until serviced by the DRAM
system.mem_ctrls2.totBusLat                 381560000                       # Total ticks spent in databus transfers
system.mem_ctrls2.avgQLat                    14168.24                       # Average queueing delay per DRAM burst
system.mem_ctrls2.avgBusLat                   5000.00                       # Average bus latency per DRAM burst
system.mem_ctrls2.avgMemAccLat               32918.24                       # Average memory access latency per DRAM burst
system.mem_ctrls2.avgRdBW                      115.61                       # Average DRAM read bandwidth in MiByte/s
system.mem_ctrls2.avgWrBW                       92.00                       # Average achieved write bandwidth in MiByte/s
system.mem_ctrls2.avgRdBWSys                   115.63                       # Average system read bandwidth in MiByte/s
system.mem_ctrls2.avgWrBWSys                    92.00                       # Average system write bandwidth in MiByte/s
system.mem_ctrls2.peakBW                     12800.00                       # Theoretical peak bandwidth in MiByte/s
system.mem_ctrls2.busUtil                        1.62                       # Data bus utilization in percentage
system.mem_ctrls2.busUtilRead                    0.90                       # Data bus utilization in percentage for reads
system.mem_ctrls2.busUtilWrite                   0.72                       # Data bus utilization in percentage for writes
system.mem_ctrls2.avgRdQLen                      1.04                       # Average read queue length when enqueuing
system.mem_ctrls2.avgWrQLen                      2.93                       # Average write queue length when enqueuing
system.mem_ctrls2.readRowHits                   54495                       # Number of row buffer hits during reads
system.mem_ctrls2.writeRowHits                  36628                       # Number of row buffer hits during writes
system.mem_ctrls2.readRowHitRate                71.41                       # Row buffer hit rate for reads
system.mem_ctrls2.writeRowHitRate               60.31                       # Row buffer hit rate for writes
system.mem_ctrls2.avgGap                    308236.84                       # Average gap between requests
system.mem_ctrls2.pageHitRate                   66.49                       # Row buffer hit rate, read and write combined
system.mem_ctrls2.memoryStateTime::IDLE    9521720250                       # Time in different power states
system.mem_ctrls2.memoryStateTime::REF     1410500000                       # Time in different power states
system.mem_ctrls2.memoryStateTime::PRE_PDN            0                       # Time in different power states
system.mem_ctrls2.memoryStateTime::ACT    31308459750                       # Time in different power states
system.mem_ctrls2.memoryStateTime::ACT_PDN            0                       # Time in different power states
system.mem_ctrls2.actEnergy::0              175520520                       # Energy for activate commands per rank (pJ)
system.mem_ctrls2.actEnergy::1              171506160                       # Energy for activate commands per rank (pJ)
system.mem_ctrls2.preEnergy::0               95770125                       # Energy for precharge commands per rank (pJ)
system.mem_ctrls2.preEnergy::1               93579750                       # Energy for precharge commands per rank (pJ)
system.mem_ctrls2.readEnergy::0             300791400                       # Energy for read commands per rank (pJ)
system.mem_ctrls2.readEnergy::1             294301800                       # Energy for read commands per rank (pJ)
system.mem_ctrls2.writeEnergy::0            195942240                       # Energy for write commands per rank (pJ)
system.mem_ctrls2.writeEnergy::1            197516880                       # Energy for write commands per rank (pJ)
system.mem_ctrls2.refreshEnergy::0         2758938000                       # Energy for refresh commands per rank (pJ)
system.mem_ctrls2.refreshEnergy::1         2758938000                       # Energy for refresh commands per rank (pJ)
system.mem_ctrls2.actBackEnergy::0        17281873035                       # Energy for active background per rank (pJ)
system.mem_ctrls2.actBackEnergy::1        16772812020                       # Energy for active background per rank (pJ)
system.mem_ctrls2.preBackEnergy::0        10184862000                       # Energy for precharge background per rank (pJ)
system.mem_ctrls2.preBackEnergy::1        10631406750                       # Energy for precharge background per rank (pJ)
system.mem_ctrls2.totalEnergy::0          30993697320                       # Total energy per rank (pJ)
system.mem_ctrls2.totalEnergy::1          30920061360                       # Total energy per rank (pJ)
system.mem_ctrls2.averagePower::0          733.740731                       # Core power per rank (mW)
system.mem_ctrls2.averagePower::1          731.997483                       # Core power per rank (mW)
system.mem_ctrls3.bytes_read::ruby.dir_cntrl3      4859968                       # Number of bytes read from this memory
system.mem_ctrls3.bytes_read::total           4859968                       # Number of bytes read from this memory
system.mem_ctrls3.bytes_written::ruby.dir_cntrl3      3878720                       # Number of bytes written to this memory
system.mem_ctrls3.bytes_written::total        3878720                       # Number of bytes written to this memory
system.mem_ctrls3.num_reads::ruby.dir_cntrl3        75937                       # Number of read requests responded to by this memory
system.mem_ctrls3.num_reads::total              75937                       # Number of read requests responded to by this memory
system.mem_ctrls3.num_writes::ruby.dir_cntrl3        60605                       # Number of write requests responded to by this memory
system.mem_ctrls3.num_writes::total             60605                       # Number of write requests responded to by this memory
system.mem_ctrls3.bw_read::ruby.dir_cntrl3    115039048                       # Total read bandwidth from this memory (bytes/s)
system.mem_ctrls3.bw_read::total            115039048                       # Total read bandwidth from this memory (bytes/s)
system.mem_ctrls3.bw_write::ruby.dir_cntrl3     91812180                       # Write bandwidth from this memory (bytes/s)
system.mem_ctrls3.bw_write::total            91812180                       # Write bandwidth from this memory (bytes/s)
system.mem_ctrls3.bw_total::ruby.dir_cntrl3    206851229                       # Total bandwidth to/from this memory (bytes/s)
system.mem_ctrls3.bw_total::total           206851229                       # Total bandwidth to/from this memory (bytes/s)
system.mem_ctrls3.readReqs                      75938                       # Number of read requests accepted
system.mem_ctrls3.writeReqs                     60605                       # Number of write requests accepted
system.mem_ctrls3.readBursts                    75938                       # Number of DRAM read bursts, including those serviced by the write queue
system.mem_ctrls3.writeBursts                   60605                       # Number of DRAM write bursts, including those merged in the write queue
system.mem_ctrls3.bytesReadDRAM               4859456                       # Total number of bytes read from DRAM
system.mem_ctrls3.bytesReadWrQ                    576                       # Total number of bytes read from write queue
system.mem_ctrls3.bytesWritten                3878592                       # Total number of bytes written to DRAM
system.mem_ctrls3.bytesReadSys                4860032                       # Total read bytes from the system interface side
system.mem_ctrls3.bytesWrittenSys             3878720                       # Total written bytes from the system interface side
system.mem_ctrls3.servicedByWrQ                     9                       # Number of DRAM read bursts serviced by the write queue
system.mem_ctrls3.mergedWrBursts                    0                       # Number of DRAM write bursts merged with an existing one
system.mem_ctrls3.neitherReadNorWriteReqs            0                       # Number of requests that are neither read nor write
system.mem_ctrls3.perBankRdBursts::0             4297                       # Per bank write bursts
system.mem_ctrls3.perBankRdBursts::1             4723                       # Per bank write bursts
system.mem_ctrls3.perBankRdBursts::2             4431                       # Per bank write bursts
system.mem_ctrls3.perBankRdBursts::3             4860                       # Per bank write bursts
system.mem_ctrls3.perBankRdBursts::4             4727                       # Per bank write bursts
system.mem_ctrls3.perBankRdBursts::5             5243                       # Per bank write bursts
system.mem_ctrls3.perBankRdBursts::6             4873                       # Per bank write bursts
system.mem_ctrls3.perBankRdBursts::7             5152                       # Per bank write bursts
system.mem_ctrls3.perBankRdBursts::8             4921                       # Per bank write bursts
system.mem_ctrls3.perBankRdBursts::9             5073                       # Per bank write bursts
system.mem_ctrls3.perBankRdBursts::10            4529                       # Per bank write bursts
system.mem_ctrls3.perBankRdBursts::11            4732                       # Per bank write bursts
system.mem_ctrls3.perBankRdBursts::12            4474                       # Per bank write bursts
system.mem_ctrls3.perBankRdBursts::13            4522                       # Per bank write bursts
system.mem_ctrls3.perBankRdBursts::14            4644                       # Per bank write bursts
system.mem_ctrls3.perBankRdBursts::15            4728                       # Per bank write bursts
system.mem_ctrls3.perBankWrBursts::0             3555                       # Per bank write bursts
system.mem_ctrls3.perBankWrBursts::1             3503                       # Per bank write bursts
system.mem_ctrls3.perBankWrBursts::2             3573                       # Per bank write bursts
system.mem_ctrls3.perBankWrBursts::3             3718                       # Per bank write bursts
system.mem_ctrls3.perBankWrBursts::4             3778                       # Per bank write bursts
system.mem_ctrls3.perBankWrBursts::5             4100                       # Per bank write bursts
system.mem_ctrls3.perBankWrBursts::6             3835                       # Per bank write bursts
system.mem_ctrls3.perBankWrBursts::7             4095                       # Per bank write bursts
system.mem_ctrls3.perBankWrBursts::8             3966                       # Per bank write bursts
system.mem_ctrls3.perBankWrBursts::9             4034                       # Per bank write bursts
system.mem_ctrls3.perBankWrBursts::10            3611                       # Per bank write bursts
system.mem_ctrls3.perBankWrBursts::11            3582                       # Per bank write bursts
system.mem_ctrls3.perBankWrBursts::12            3709                       # Per bank write bursts
system.mem_ctrls3.perBankWrBursts::13            3825                       # Per bank write bursts
system.mem_ctrls3.perBankWrBursts::14            3893                       # Per bank write bursts
system.mem_ctrls3.perBankWrBursts::15            3826                       # Per bank write bursts
system.mem_ctrls3.numRdRetry                        0                       # Number of times read queue was full causing retry
system.mem_ctrls3.numWrRetry                       15                       # Number of times write queue was full causing retry
system.mem_ctrls3.totGap                  42245505500                       # Total gap between requests
system.mem_ctrls3.readPktSize::0                    0                       # Read request sizes (log2)
system.mem_ctrls3.readPktSize::1                    0                       # Read request sizes (log2)
system.mem_ctrls3.readPktSize::2                    0                       # Read request sizes (log2)
system.mem_ctrls3.readPktSize::3                    0                       # Read request sizes (log2)
system.mem_ctrls3.readPktSize::4                    0                       # Read request sizes (log2)
system.mem_ctrls3.readPktSize::5                    0                       # Read request sizes (log2)
system.mem_ctrls3.readPktSize::6                75938                       # Read request sizes (log2)
system.mem_ctrls3.writePktSize::0                   0                       # Write request sizes (log2)
system.mem_ctrls3.writePktSize::1                   0                       # Write request sizes (log2)
system.mem_ctrls3.writePktSize::2                   0                       # Write request sizes (log2)
system.mem_ctrls3.writePktSize::3                   0                       # Write request sizes (log2)
system.mem_ctrls3.writePktSize::4                   0                       # Write request sizes (log2)
system.mem_ctrls3.writePktSize::5                   0                       # Write request sizes (log2)
system.mem_ctrls3.writePktSize::6               60605                       # Write request sizes (log2)
system.mem_ctrls3.rdQLenPdf::0                  67674                       # What read queue length does an incoming req see
system.mem_ctrls3.rdQLenPdf::1                   6686                       # What read queue length does an incoming req see
system.mem_ctrls3.rdQLenPdf::2                   1068                       # What read queue length does an incoming req see
system.mem_ctrls3.rdQLenPdf::3                    276                       # What read queue length does an incoming req see
system.mem_ctrls3.rdQLenPdf::4                     94                       # What read queue length does an incoming req see
system.mem_ctrls3.rdQLenPdf::5                     32                       # What read queue length does an incoming req see
system.mem_ctrls3.rdQLenPdf::6                     21                       # What read queue length does an incoming req see
system.mem_ctrls3.rdQLenPdf::7                     20                       # What read queue length does an incoming req see
system.mem_ctrls3.rdQLenPdf::8                     13                       # What read queue length does an incoming req see
system.mem_ctrls3.rdQLenPdf::9                     14                       # What read queue length does an incoming req see
system.mem_ctrls3.rdQLenPdf::10                    10                       # What read queue length does an incoming req see
system.mem_ctrls3.rdQLenPdf::11                     7                       # What read queue length does an incoming req see
system.mem_ctrls3.rdQLenPdf::12                     5                       # What read queue length does an incoming req see
system.mem_ctrls3.rdQLenPdf::13                     4                       # What read queue length does an incoming req see
system.mem_ctrls3.rdQLenPdf::14                     3                       # What read queue length does an incoming req see
system.mem_ctrls3.rdQLenPdf::15                     1                       # What read queue length does an incoming req see
system.mem_ctrls3.rdQLenPdf::16                     1                       # What read queue length does an incoming req see
system.mem_ctrls3.rdQLenPdf::17                     0                       # What read queue length does an incoming req see
system.mem_ctrls3.rdQLenPdf::18                     0                       # What read queue length does an incoming req see
system.mem_ctrls3.rdQLenPdf::19                     0                       # What read queue length does an incoming req see
system.mem_ctrls3.rdQLenPdf::20                     0                       # What read queue length does an incoming req see
system.mem_ctrls3.rdQLenPdf::21                     0                       # What read queue length does an incoming req see
system.mem_ctrls3.rdQLenPdf::22                     0                       # What read queue length does an incoming req see
system.mem_ctrls3.rdQLenPdf::23                     0                       # What read queue length does an incoming req see
system.mem_ctrls3.rdQLenPdf::24                     0                       # What read queue length does an incoming req see
[...]
system.ruby.L2Cache_Controller.MT_IIB.L1_UPGRADE::total          254                      
system.ruby.L2Cache_Controller.MT_IIB.WB_Data |        6523      3.23%      3.23% |        6382      3.16%      6.40% |        6238      3.09%      9.49% |        6253      3.10%     12.59% |        6358      3.15%     15.74% |        6160      3.05%     18.80% |        6368      3.16%     21.95% |        6364      3.15%     25.11% |        6387      3.17%     28.27% |        6318      3.13%     31.41% |        6333      3.14%     34.54% |        6302      3.12%     37.67% |        6426      3.19%     40.85% |        6256      3.10%     43.96% |        6272      3.11%     47.06% |        6218      3.08%     50.15% |        6539      3.24%     53.39% |        6352      3.15%     56.54% |        6268      3.11%     59.64% |        6266      3.11%     62.75% |        6398      3.17%     65.92% |        6254      3.10%     69.02% |        6232      3.09%     72.11% |        6214      3.08%     75.19% |        6397      3.17%     78.36% |        6217      3.08%     81.45% |        6168      3.06%     84.50% |        6217      3.08%     87.59% |        6361      3.15%     90.74% |        6241      3.09%     93.83% |        6214      3.08%     96.91% |        6226      3.09%    100.00%
system.ruby.L2Cache_Controller.MT_IIB.WB_Data::total       201722                      
system.ruby.L2Cache_Controller.MT_IIB.WB_Data_clean |         411      3.20%      3.20% |         403      3.14%      6.35% |         406      3.17%      9.51% |         395      3.08%     12.59% |         412      3.21%     15.81% |         408      3.18%     18.99% |         422      3.29%     22.28% |         412      3.21%     25.49% |         404      3.15%     28.64% |         390      3.04%     31.68% |         404      3.15%     34.83% |         413      3.22%     38.05% |         402      3.13%     41.19% |         395      3.08%     44.27% |         405      3.16%     47.43% |         403      3.14%     50.57% |         409      3.19%     53.76% |         394      3.07%     56.83% |         392      3.06%     59.89% |         391      3.05%     62.94% |         416      3.24%     66.18% |         389      3.03%     69.21% |         389      3.03%     72.25% |         380      2.96%     75.21% |         393      3.06%     78.28% |         394      3.07%     81.35% |         385      3.00%     84.35% |         391      3.05%     87.40% |         413      3.22%     90.62% |         419      3.27%     93.89% |         397      3.10%     96.98% |         387      3.02%    100.00%
system.ruby.L2Cache_Controller.MT_IIB.WB_Data_clean::total        12824                      
system.ruby.L2Cache_Controller.MT_IIB.Unblock |          30      0.74%      0.74% |          33      0.82%      1.56% |         168      4.17%      5.73% |         121      3.00%      8.74% |         215      5.34%     14.07% |         258      6.40%     20.48% |          26      0.65%     21.12% |          20      0.50%     21.62% |         160      3.97%     25.59% |          98      2.43%     28.02% |          81      2.01%     30.03% |         123      3.05%     33.09% |         128      3.18%     36.26% |         109      2.71%     38.97% |         105      2.61%     41.57% |         162      4.02%     45.59% |          23      0.57%     46.17% |          24      0.60%     46.76% |         111      2.76%     49.52% |         147      3.65%     53.16% |         192      4.77%     57.93% |         115      2.85%     60.78% |         124      3.08%     63.86% |         149      3.70%     67.56% |         151      3.75%     71.31% |         155      3.85%     75.16% |         169      4.19%     79.35% |         120      2.98%     82.33% |         207      5.14%     87.47% |         176      4.37%     91.83% |         174      4.32%     96.15% |         155      3.85%    100.00%
system.ruby.L2Cache_Controller.MT_IIB.Unblock::total         4029                      
system.ruby.L2Cache_Controller.MT_IB.L1_GETS |           0      0.00%      0.00% |           0      0.00%      0.00% |           0      0.00%      0.00% |           0      0.00%      0.00% |           0      0.00%      0.00% |           0      0.00%      0.00% |           0      0.00%      0.00% |           0      0.00%      0.00% |           0      0.00%      0.00% |           0      0.00%      0.00% |           0      0.00%      0.00% |           0      0.00%      0.00% |           0      0.00%      0.00% |           0      0.00%      0.00% |           0      0.00%      0.00% |           0      0.00%      0.00% |           0      0.00%      0.00% |           0      0.00%      0.00% |           1     33.33%     33.33% |           0      0.00%     33.33% |           0      0.00%     33.33% |           0      0.00%     33.33% |           1     33.33%     66.67% |           0      0.00%     66.67% |           0      0.00%     66.67% |           1     33.33%    100.00% |           0      0.00%    100.00% |           0      0.00%    100.00% |           0      0.00%    100.00% |           0      0.00%    100.00% |           0      0.00%    100.00% |           0      0.00%    100.00%
system.ruby.L2Cache_Controller.MT_IB.L1_GETS::total            3                      
system.ruby.L2Cache_Controller.MT_IB.L1_UPGRADE |           0      0.00%      0.00% |           0      0.00%      0.00% |           0      0.00%      0.00% |           0      0.00%      0.00% |           0      0.00%      0.00% |           0      0.00%      0.00% |           0      0.00%      0.00% |           0      0.00%      0.00% |           0      0.00%      0.00% |           0      0.00%      0.00% |           0      0.00%      0.00% |           0      0.00%      0.00% |           1     33.33%     33.33% |           1     33.33%     66.67% |           0      0.00%     66.67% |           0      0.00%     66.67% |           0      0.00%     66.67% |           0      0.00%     66.67% |           0      0.00%     66.67% |           0      0.00%     66.67% |           1     33.33%    100.00% |           0      0.00%    100.00% |           0      0.00%    100.00% |           0      0.00%    100.00% |           0      0.00%    100.00% |           0      0.00%    100.00% |           0      0.00%    100.00% |           0      0.00%    100.00% |           0      0.00%    100.00% |           0      0.00%    100.00% |           0      0.00%    100.00% |           0      0.00%    100.00%
system.ruby.L2Cache_Controller.MT_IB.L1_UPGRADE::total            3                      
system.ruby.L2Cache_Controller.MT_IB.WB_Data |          29      0.75%      0.75% |          29      0.75%      1.50% |         162      4.19%      5.70% |         113      2.93%      8.62% |         208      5.39%     14.01% |         254      6.58%     20.59% |          25      0.65%     21.23% |          18      0.47%     21.70% |         156      4.04%     25.74% |          91      2.36%     28.09% |          78      2.02%     30.11% |         120      3.11%     33.22% |         125      3.24%     36.46% |         108      2.80%     39.25% |         100      2.59%     41.84% |         157      4.07%     45.91% |          23      0.60%     46.50% |          24      0.62%     47.13% |         105      2.72%     49.84% |         139      3.60%     53.44% |         182      4.71%     58.16% |         112      2.90%     61.06% |         120      3.11%     64.16% |         137      3.55%     67.71% |         139      3.60%     71.31% |         148      3.83%     75.14% |         164      4.25%     79.39% |         109      2.82%     82.21% |         199      5.15%     87.36% |         173      4.48%     91.84% |         168      4.35%     96.19% |         147      3.81%    100.00%
system.ruby.L2Cache_Controller.MT_IB.WB_Data::total         3862                      
system.ruby.L2Cache_Controller.MT_IB.WB_Data_clean |           1      0.60%      0.60% |           4      2.40%      2.99% |           6      3.59%      6.59% |           8      4.79%     11.38% |           7      4.19%     15.57% |           4      2.40%     17.96% |           1      0.60%     18.56% |           2      1.20%     19.76% |           4      2.40%     22.16% |           7      4.19%     26.35% |           3      1.80%     28.14% |           3      1.80%     29.94% |           3      1.80%     31.74% |           1      0.60%     32.34% |           5      2.99%     35.33% |           5      2.99%     38.32% |           0      0.00%     38.32% |           0      0.00%     38.32% |           6      3.59%     41.92% |           8      4.79%     46.71% |          10      5.99%     52.69% |           3      1.80%     54.49% |           4      2.40%     56.89% |          12      7.19%     64.07% |          12      7.19%     71.26% |           7      4.19%     75.45% |           5      2.99%     78.44% |          11      6.59%     85.03% |           8      4.79%     89.82% |           3      1.80%     91.62% |           6      3.59%     95.21% |           8      4.79%    100.00%
system.ruby.L2Cache_Controller.MT_IB.WB_Data_clean::total          167                      
system.ruby.L2Cache_Controller.MT_SB.L1_GETS |          31      2.72%      2.72% |          33      2.89%      5.61% |          38      3.33%      8.94% |          34      2.98%     11.92% |          34      2.98%     14.90% |          36      3.16%     18.05% |          35      3.07%     21.12% |          48      4.21%     25.33% |          38      3.33%     28.66% |          33      2.89%     31.55% |          31      2.72%     34.27% |          33      2.89%     37.16% |          27      2.37%     39.53% |          50      4.38%     43.91% |          32      2.80%     46.71% |          34      2.98%     49.69% |          37      3.24%     52.94% |          40      3.51%     56.44% |          38      3.33%     59.77% |          35      3.07%     62.84% |          29      2.54%     65.38% |          25      2.19%     67.57% |          48      4.21%     71.78% |          40      3.51%     75.28% |          44      3.86%     79.14% |          29      2.54%     81.68% |          30      2.63%     84.31% |          36      3.16%     87.47% |          27      2.37%     89.83% |          41      3.59%     93.43% |          32      2.80%     96.23% |          43      3.77%    100.00%
system.ruby.L2Cache_Controller.MT_SB.L1_GETS::total         1141                      
system.ruby.L2Cache_Controller.MT_SB.L1_GETX |          20      3.77%      3.77% |          18      3.39%      7.16% |          10      1.88%      9.04% |          13      2.45%     11.49% |          13      2.45%     13.94% |          19      3.58%     17.51% |          14      2.64%     20.15% |          12      2.26%     22.41% |          18      3.39%     25.80% |          20      3.77%     29.57% |          15      2.82%     32.39% |          20      3.77%     36.16% |          17      3.20%     39.36% |          14      2.64%     42.00% |          20      3.77%     45.76% |          15      2.82%     48.59% |          16      3.01%     51.60% |          12      2.26%     53.86% |          14      2.64%     56.50% |          20      3.77%     60.26% |          14      2.64%     62.90% |          12      2.26%     65.16% |          15      2.82%     67.98% |          15      2.82%     70.81% |          27      5.08%     75.89% |          16      3.01%     78.91% |          24      4.52%     83.43% |          24      4.52%     87.95% |          17      3.20%     91.15% |          13      2.45%     93.60% |          20      3.77%     97.36% |          14      2.64%    100.00%
system.ruby.L2Cache_Controller.MT_SB.L1_GETX::total          531                      
system.ruby.L2Cache_Controller.MT_SB.L1_UPGRADE |           6      2.79%      2.79% |           8      3.72%      6.51% |           5      2.33%      8.84% |           6      2.79%     11.63% |           8      3.72%     15.35% |           9      4.19%     19.53% |           6      2.79%     22.33% |          12      5.58%     27.91% |          10      4.65%     32.56% |           2      0.93%     33.49% |           4      1.86%     35.35% |          11      5.12%     40.47% |          11      5.12%     45.58% |          10      4.65%     50.23% |          10      4.65%     54.88% |           6      2.79%     57.67% |           2      0.93%     58.60% |           1      0.47%     59.07% |           7      3.26%     62.33% |           3      1.40%     63.72% |           4      1.86%     65.58% |           5      2.33%     67.91% |          10      4.65%     72.56% |           6      2.79%     75.35% |           4      1.86%     77.21% |          16      7.44%     84.65% |           5      2.33%     86.98% |           5      2.33%     89.30% |           6      2.79%     92.09% |           4      1.86%     93.95% |           8      3.72%     97.67% |           5      2.33%    100.00%
system.ruby.L2Cache_Controller.MT_SB.L1_UPGRADE::total          215                      
system.ruby.L2Cache_Controller.MT_SB.Unblock |        6934      3.23%      3.23% |        6785      3.16%      6.39% |        6644      3.10%      9.49% |        6648      3.10%     12.59% |        6770      3.16%     15.75% |        6568      3.06%     18.81% |        6790      3.16%     21.97% |        6776      3.16%     25.13% |        6791      3.17%     28.30% |        6708      3.13%     31.42% |        6737      3.14%     34.56% |        6715      3.13%     37.69% |        6828      3.18%     40.87% |        6651      3.10%     43.97% |        6677      3.11%     47.09% |        6621      3.09%     50.17% |        6948      3.24%     53.41% |        6746      3.14%     56.56% |        6660      3.10%     59.66% |        6657      3.10%     62.76% |        6814      3.18%     65.94% |        6643      3.10%     69.03% |        6621      3.09%     72.12% |        6594      3.07%     75.19% |        6790      3.16%     78.36% |        6611      3.08%     81.44% |        6553      3.05%     84.49% |        6608      3.08%     87.57% |        6774      3.16%     90.73% |        6660      3.10%     93.84% |        6611      3.08%     96.92% |        6613      3.08%    100.00%
system.ruby.L2Cache_Controller.MT_SB.Unblock::total       214546                      
system.ruby.SimicsNetworkPortInterface_Controller.MessageSend |      306448     17.64%     17.64% |      868440     50.00%     67.64% |      135490      7.80%     75.44% |      146366      8.43%     83.87% |      134522      7.75%     91.62% |      145614      8.38%    100.00% |           0      0.00%    100.00% |           0      0.00%    100.00% |           0      0.00%    100.00% |           0      0.00%    100.00% |           0      0.00%    100.00% |           0      0.00%    100.00% |           0      0.00%    100.00% |           0      0.00%    100.00% |           0      0.00%    100.00% |           0      0.00%    100.00% |           0      0.00%    100.00% |           0      0.00%    100.00% |           0      0.00%    100.00% |           0      0.00%    100.00% |           0      0.00%    100.00% |           0      0.00%    100.00% |           0      0.00%    100.00% |           0      0.00%    100.00% |           0      0.00%    100.00% |           0      0.00%    100.00% |           0      0.00%    100.00% |           0      0.00%    100.00% |           0      0.00%    100.00% |           0      0.00%    100.00% |           0      0.00%    100.00% |           0      0.00%    100.00%
system.ruby.SimicsNetworkPortInterface_Controller.MessageSend::total      1736880                      
system.ruby.SimicsNetworkPortInterface_Controller.MessageRecv |      306448     17.64%     17.64% |      868440     50.00%     67.64% |      135490      7.80%     75.44% |      146366      8.43%     83.87% |      134522      7.75%     91.62% |      145614      8.38%    100.00% |           0      0.00%    100.00% |           0      0.00%    100.00% |           0      0.00%    100.00% |           0      0.00%    100.00% |           0      0.00%    100.00% |           0      0.00%    100.00% |           0      0.00%    100.00% |           0      0.00%    100.00% |           0      0.00%    100.00% |           0      0.00%    100.00% |           0      0.00%    100.00% |           0      0.00%    100.00% |           0      0.00%    100.00% |           0      0.00%    100.00% |           0      0.00%    100.00% |           0      0.00%    100.00% |           0      0.00%    100.00% |           0      0.00%    100.00% |           0      0.00%    100.00% |           0      0.00%    100.00% |           0      0.00%    100.00% |           0      0.00%    100.00% |           0      0.00%    100.00% |           0      0.00%    100.00% |           0      0.00%    100.00% |           0      0.00%    100.00%
system.ruby.SimicsNetworkPortInterface_Controller.MessageRecv::total      1736880                      
system.ruby.SimicsNetworkPortInterface_Controller.A.MessageSend |      306448     17.64%     17.64% |      868440     50.00%     67.64% |      135490      7.80%     75.44% |      146366      8.43%     83.87% |      134522      7.75%     91.62% |      145614      8.38%    100.00% |           0      0.00%    100.00% |           0      0.00%    100.00% |           0      0.00%    100.00% |           0      0.00%    100.00% |           0      0.00%    100.00% |           0      0.00%    100.00% |           0      0.00%    100.00% |           0      0.00%    100.00% |           0      0.00%    100.00% |           0      0.00%    100.00% |           0      0.00%    100.00% |           0      0.00%    100.00% |           0      0.00%    100.00% |           0      0.00%    100.00% |           0      0.00%    100.00% |           0      0.00%    100.00% |           0      0.00%    100.00% |           0      0.00%    100.00% |           0      0.00%    100.00% |           0      0.00%    100.00% |           0      0.00%    100.00% |           0      0.00%    100.00% |           0      0.00%    100.00% |           0      0.00%    100.00% |           0      0.00%    100.00% |           0      0.00%    100.00%
system.ruby.SimicsNetworkPortInterface_Controller.A.MessageSend::total      1736880                      
system.ruby.SimicsNetworkPortInterface_Controller.A.MessageRecv |      306448     17.64%     17.64% |      868440     50.00%     67.64% |      135490      7.80%     75.44% |      146366      8.43%     83.87% |      134522      7.75%     91.62% |      145614      8.38%    100.00% |           0      0.00%    100.00% |           0      0.00%    100.00% |           0      0.00%    100.00% |           0      0.00%    100.00% |           0      0.00%    100.00% |           0      0.00%    100.00% |           0      0.00%    100.00% |           0      0.00%    100.00% |           0      0.00%    100.00% |           0      0.00%    100.00% |           0      0.00%    100.00% |           0      0.00%    100.00% |           0      0.00%    100.00% |           0      0.00%    100.00% |           0      0.00%    100.00% |           0      0.00%    100.00% |           0      0.00%    100.00% |           0      0.00%    100.00% |           0      0.00%    100.00% |           0      0.00%    100.00% |           0      0.00%    100.00% |           0      0.00%    100.00% |           0      0.00%    100.00% |           0      0.00%    100.00% |           0      0.00%    100.00% |           0      0.00%    100.00%
system.ruby.SimicsNetworkPortInterface_Controller.A.MessageRecv::total      1736880                      
system.switch_cpus.kern.inst.arm                    0                       # number of arm instructions executed
system.switch_cpus.kern.inst.quiesce                0                       # number of quiesce instructions executed

---------- End Simulation Statistics   ----------
