
---------- Begin Simulation Statistics ----------
sim_seconds                                  0.092897                       # Number of seconds simulated
sim_ticks                                 92896740500                       # Number of ticks simulated
final_tick                               5269064819000                       # Number of ticks from beginning of simulation (restored from checkpoints and never reset)
sim_freq                                 1000000000000                       # Frequency of simulated ticks
host_inst_rate                                  23933                       # Simulator instruction rate (inst/s)
host_op_rate                                    42277                       # Simulator op (including micro ops) rate (op/s)
host_tick_rate                               52839837                       # Simulator tick rate (ticks/s)
host_mem_usage                                6564320                       # Number of bytes of host memory used
host_seconds                                  1758.08                       # Real time elapsed on the host
sim_insts                                    42075689                       # Number of instructions simulated
sim_ops                                      74325716                       # Number of ops (including micro ops) simulated
system.voltage_domain.voltage                       1                       # Voltage in Volts
system.clk_domain.clock                           500                       # Clock period in ticks
system.mem_ctrls0.bytes_read::ruby.dir_cntrl0     21135744                       # Number of bytes read from this memory
system.mem_ctrls0.bytes_read::total          21135744                       # Number of bytes read from this memory
system.mem_ctrls0.bytes_written::ruby.dir_cntrl0     11912704                       # Number of bytes written to this memory
system.mem_ctrls0.bytes_written::total       11912704                       # Number of bytes written to this memory
system.mem_ctrls0.num_reads::ruby.dir_cntrl0       330246                       # Number of read requests responded to by this memory
system.mem_ctrls0.num_reads::total             330246                       # Number of read requests responded to by this memory
system.mem_ctrls0.num_writes::ruby.dir_cntrl0       186136                       # Number of write requests responded to by this memory
system.mem_ctrls0.num_writes::total            186136                       # Number of write requests responded to by this memory
system.mem_ctrls0.bw_read::ruby.dir_cntrl0    227518682                       # Total read bandwidth from this memory (bytes/s)
system.mem_ctrls0.bw_read::total            227518682                       # Total read bandwidth from this memory (bytes/s)
system.mem_ctrls0.bw_write::ruby.dir_cntrl0    128235974                       # Write bandwidth from this memory (bytes/s)
system.mem_ctrls0.bw_write::total           128235974                       # Write bandwidth from this memory (bytes/s)
system.mem_ctrls0.bw_total::ruby.dir_cntrl0    355754656                       # Total bandwidth to/from this memory (bytes/s)
system.mem_ctrls0.bw_total::total           355754656                       # Total bandwidth to/from this memory (bytes/s)
system.mem_ctrls0.readReqs                     330246                       # Number of read requests accepted
system.mem_ctrls0.writeReqs                    186136                       # Number of write requests accepted
system.mem_ctrls0.readBursts                   330246                       # Number of DRAM read bursts, including those serviced by the write queue
system.mem_ctrls0.writeBursts                  186136                       # Number of DRAM write bursts, including those merged in the write queue
system.mem_ctrls0.bytesReadDRAM              21133248                       # Total number of bytes read from DRAM
system.mem_ctrls0.bytesReadWrQ                   2496                       # Total number of bytes read from write queue
system.mem_ctrls0.bytesWritten               11912512                       # Total number of bytes written to DRAM
system.mem_ctrls0.bytesReadSys               21135744                       # Total read bytes from the system interface side
system.mem_ctrls0.bytesWrittenSys            11912704                       # Total written bytes from the system interface side
system.mem_ctrls0.servicedByWrQ                    39                       # Number of DRAM read bursts serviced by the write queue
system.mem_ctrls0.mergedWrBursts                    0                       # Number of DRAM write bursts merged with an existing one
system.mem_ctrls0.neitherReadNorWriteReqs            0                       # Number of requests that are neither read nor write
system.mem_ctrls0.perBankRdBursts::0            20380                       # Per bank write bursts
system.mem_ctrls0.perBankRdBursts::1            21022                       # Per bank write bursts
system.mem_ctrls0.perBankRdBursts::2            20534                       # Per bank write bursts
system.mem_ctrls0.perBankRdBursts::3            20877                       # Per bank write bursts
system.mem_ctrls0.perBankRdBursts::4            20526                       # Per bank write bursts
system.mem_ctrls0.perBankRdBursts::5            21058                       # Per bank write bursts
system.mem_ctrls0.perBankRdBursts::6            20632                       # Per bank write bursts
system.mem_ctrls0.perBankRdBursts::7            20724                       # Per bank write bursts
system.mem_ctrls0.perBankRdBursts::8            20671                       # Per bank write bursts
system.mem_ctrls0.perBankRdBursts::9            20906                       # Per bank write bursts
system.mem_ctrls0.perBankRdBursts::10           20624                       # Per bank write bursts
system.mem_ctrls0.perBankRdBursts::11           20975                       # Per bank write bursts
system.mem_ctrls0.perBankRdBursts::12           20252                       # Per bank write bursts
system.mem_ctrls0.perBankRdBursts::13           20145                       # Per bank write bursts
system.mem_ctrls0.perBankRdBursts::14           20460                       # Per bank write bursts
system.mem_ctrls0.perBankRdBursts::15           20421                       # Per bank write bursts
system.mem_ctrls0.perBankWrBursts::0            11509                       # Per bank write bursts
system.mem_ctrls0.perBankWrBursts::1            11673                       # Per bank write bursts
system.mem_ctrls0.perBankWrBursts::2            11675                       # Per bank write bursts
system.mem_ctrls0.perBankWrBursts::3            11648                       # Per bank write bursts
system.mem_ctrls0.perBankWrBursts::4            11608                       # Per bank write bursts
system.mem_ctrls0.perBankWrBursts::5            11922                       # Per bank write bursts
system.mem_ctrls0.perBankWrBursts::6            11561                       # Per bank write bursts
system.mem_ctrls0.perBankWrBursts::7            11687                       # Per bank write bursts
system.mem_ctrls0.perBankWrBursts::8            11900                       # Per bank write bursts
system.mem_ctrls0.perBankWrBursts::9            11715                       # Per bank write bursts
system.mem_ctrls0.perBankWrBursts::10           11517                       # Per bank write bursts
system.mem_ctrls0.perBankWrBursts::11           11703                       # Per bank write bursts
system.mem_ctrls0.perBankWrBursts::12           11349                       # Per bank write bursts
system.mem_ctrls0.perBankWrBursts::13           11318                       # Per bank write bursts
system.mem_ctrls0.perBankWrBursts::14           11752                       # Per bank write bursts
system.mem_ctrls0.perBankWrBursts::15           11596                       # Per bank write bursts
system.mem_ctrls0.numRdRetry                     3313                       # Number of times read queue was full causing retry
system.mem_ctrls0.numWrRetry                     1961                       # Number of times write queue was full causing retry
system.mem_ctrls0.totGap                  92896178500                       # Total gap between requests
system.mem_ctrls0.readPktSize::0                    0                       # Read request sizes (log2)
system.mem_ctrls0.readPktSize::1                    0                       # Read request sizes (log2)
system.mem_ctrls0.readPktSize::2                    0                       # Read request sizes (log2)
system.mem_ctrls0.readPktSize::3                    0                       # Read request sizes (log2)
system.mem_ctrls0.readPktSize::4                    0                       # Read request sizes (log2)
system.mem_ctrls0.readPktSize::5                    0                       # Read request sizes (log2)
system.mem_ctrls0.readPktSize::6               330246                       # Read request sizes (log2)
system.mem_ctrls0.writePktSize::0                   0                       # Write request sizes (log2)
system.mem_ctrls0.writePktSize::1                   0                       # Write request sizes (log2)
system.mem_ctrls0.writePktSize::2                   0                       # Write request sizes (log2)
system.mem_ctrls0.writePktSize::3                   0                       # Write request sizes (log2)
system.mem_ctrls0.writePktSize::4                   0                       # Write request sizes (log2)
system.mem_ctrls0.writePktSize::5                   0                       # Write request sizes (log2)
system.mem_ctrls0.writePktSize::6              186136                       # Write request sizes (log2)
system.mem_ctrls0.rdQLenPdf::0                 154730                       # What read queue length does an incoming req see
system.mem_ctrls0.rdQLenPdf::1                  37208                       # What read queue length does an incoming req see
system.mem_ctrls0.rdQLenPdf::2                  28129                       # What read queue length does an incoming req see
system.mem_ctrls0.rdQLenPdf::3                  20896                       # What read queue length does an incoming req see
system.mem_ctrls0.rdQLenPdf::4                  16088                       # What read queue length does an incoming req see
system.mem_ctrls0.rdQLenPdf::5                  12900                       # What read queue length does an incoming req see
system.mem_ctrls0.rdQLenPdf::6                  10247                       # What read queue length does an incoming req see
system.mem_ctrls0.rdQLenPdf::7                   8214                       # What read queue length does an incoming req see
system.mem_ctrls0.rdQLenPdf::8                   6673                       # What read queue length does an incoming req see
system.mem_ctrls0.rdQLenPdf::9                   5394                       # What read queue length does an incoming req see
system.mem_ctrls0.rdQLenPdf::10                  4367                       # What read queue length does an incoming req see
system.mem_ctrls0.rdQLenPdf::11                  3527                       # What read queue length does an incoming req see
system.mem_ctrls0.rdQLenPdf::12                  2764                       # What read queue length does an incoming req see
system.mem_ctrls0.rdQLenPdf::13                  2345                       # What read queue length does an incoming req see
system.mem_ctrls0.rdQLenPdf::14                  1916                       # What read queue length does an incoming req see
system.mem_ctrls0.rdQLenPdf::15                  1546                       # What read queue length does an incoming req see
system.mem_ctrls0.rdQLenPdf::16                  1335                       # What read queue length does an incoming req see
system.mem_ctrls0.rdQLenPdf::17                  1149                       # What read queue length does an incoming req see
system.mem_ctrls0.rdQLenPdf::18                   973                       # What read queue length does an incoming req see
system.mem_ctrls0.rdQLenPdf::19                   839                       # What read queue length does an incoming req see
system.mem_ctrls0.rdQLenPdf::20                   770                       # What read queue length does an incoming req see
system.mem_ctrls0.rdQLenPdf::21                   659                       # What read queue length does an incoming req see
system.mem_ctrls0.rdQLenPdf::22                   594                       # What read queue length does an incoming req see
system.mem_ctrls0.rdQLenPdf::23                   516                       # What read queue length does an incoming req see
system.mem_ctrls0.rdQLenPdf::24                   464                       # What read queue length does an incoming req see
system.mem_ctrls0.rdQLenPdf::25                   432                       # What read queue length does an incoming req see
system.mem_ctrls0.rdQLenPdf::26                   385                       # What read queue length does an incoming req see
system.mem_ctrls0.rdQLenPdf::27                   377                       # What read queue length does an incoming req see
system.mem_ctrls0.rdQLenPdf::28                   355                       # What read queue length does an incoming req see
system.mem_ctrls0.rdQLenPdf::29                   306                       # What read queue length does an incoming req see
system.mem_ctrls0.rdQLenPdf::30                   346                       # What read queue length does an incoming req see
system.mem_ctrls0.rdQLenPdf::31                  3763                       # What read queue length does an incoming req see
system.mem_ctrls0.wrQLenPdf::0                  33125                       # What write queue length does an incoming req see
system.mem_ctrls0.wrQLenPdf::1                  35683                       # What write queue length does an incoming req see
system.mem_ctrls0.wrQLenPdf::2                  36229                       # What write queue length does an incoming req see
system.mem_ctrls0.wrQLenPdf::3                  36017                       # What write queue length does an incoming req see
system.mem_ctrls0.wrQLenPdf::4                  35368                       # What write queue length does an incoming req see
system.mem_ctrls0.wrQLenPdf::5                   3458                       # What write queue length does an incoming req see
system.mem_ctrls0.wrQLenPdf::6                   2563                       # What write queue length does an incoming req see
system.mem_ctrls0.wrQLenPdf::7                   3693                       # What write queue length does an incoming req see
system.mem_ctrls0.bytesPerActivate::samples       159155                       # Bytes accessed per row activation
system.mem_ctrls0.bytesPerActivate::mean   207.627332                       # Bytes accessed per row activation
system.mem_ctrls0.bytesPerActivate::gmean   156.276601                       # Bytes accessed per row activation
system.mem_ctrls0.bytesPerActivate::stdev   171.681757                       # Bytes accessed per row activation
system.mem_ctrls0.bytesPerActivate::0-127        52068     32.72%     32.72% # Bytes accessed per row activation
system.mem_ctrls0.bytesPerActivate::128-255        47380     29.77%     62.48% # Bytes accessed per row activation
system.mem_ctrls0.bytesPerActivate::256-383        43446     27.30%     89.78% # Bytes accessed per row activation
system.mem_ctrls0.bytesPerActivate::384-511         6673      4.19%     93.98% # Bytes accessed per row activation
system.mem_ctrls0.bytesPerActivate::512-639         3879      2.44%     96.41% # Bytes accessed per row activation
system.mem_ctrls0.bytesPerActivate::640-767         2051      1.29%     97.70% # Bytes accessed per row activation
system.mem_ctrls0.bytesPerActivate::768-895         1226      0.77%     98.47% # Bytes accessed per row activation
system.mem_ctrls0.bytesPerActivate::896-1023          839      0.53%     99.00% # Bytes accessed per row activation
system.mem_ctrls0.bytesPerActivate::1024-1151         1593      1.00%    100.00% # Bytes accessed per row activation
system.mem_ctrls0.bytesPerActivate::total       159155                       # Bytes accessed per row activation
system.mem_ctrls0.rdPerTurnAround::samples        33371                       # Reads before turning the bus around for writes
system.mem_ctrls0.rdPerTurnAround::mean      9.894789                       # Reads before turning the bus around for writes
system.mem_ctrls0.rdPerTurnAround::stdev    23.862475                       # Reads before turning the bus around for writes
system.mem_ctrls0.rdPerTurnAround::0-127        33364     99.98%     99.98% # Reads before turning the bus around for writes
system.mem_ctrls0.rdPerTurnAround::128-255            6      0.02%    100.00% # Reads before turning the bus around for writes
system.mem_ctrls0.rdPerTurnAround::3968-4095            1      0.00%    100.00% # Reads before turning the bus around for writes
system.mem_ctrls0.rdPerTurnAround::total        33371                       # Reads before turning the bus around for writes
system.mem_ctrls0.wrPerTurnAround::samples        33371                       # Writes before turning the bus around for reads
system.mem_ctrls0.wrPerTurnAround::mean      5.577687                       # Writes before turning the bus around for reads
system.mem_ctrls0.wrPerTurnAround::gmean     5.424393                       # Writes before turning the bus around for reads
system.mem_ctrls0.wrPerTurnAround::stdev     1.689497                       # Writes before turning the bus around for reads
system.mem_ctrls0.wrPerTurnAround::4-7          30855     92.46%     92.46% # Writes before turning the bus around for reads
system.mem_ctrls0.wrPerTurnAround::8-11          1751      5.25%     97.71% # Writes before turning the bus around for reads
system.mem_ctrls0.wrPerTurnAround::12-15          437      1.31%     99.02% # Writes before turning the bus around for reads
system.mem_ctrls0.wrPerTurnAround::16-19          328      0.98%    100.00% # Writes before turning the bus around for reads
system.mem_ctrls0.wrPerTurnAround::total        33371                       # Writes before turning the bus around for reads
system.mem_ctrls0.totQLat                 14078847319                       # Total ticks spent queuing
system.mem_ctrls0.totMemAccLat            20270228569                       # Total ticks spent from burst creation until serviced by the DRAM
system.mem_ctrls0.totBusLat                1651035000                       # Total ticks spent in databus transfers
system.mem_ctrls0.avgQLat                    42636.43                       # Average queueing delay per DRAM burst
system.mem_ctrls0.avgBusLat                   5000.00                       # Average bus latency per DRAM burst
system.mem_ctrls0.avgMemAccLat               61386.43                       # Average memory access latency per DRAM burst
system.mem_ctrls0.avgRdBW                      227.49                       # Average DRAM read bandwidth in MiByte/s
system.mem_ctrls0.avgWrBW                      128.23                       # Average achieved write bandwidth in MiByte/s
system.mem_ctrls0.avgRdBWSys                   227.52                       # Average system read bandwidth in MiByte/s
system.mem_ctrls0.avgWrBWSys                   128.24                       # Average system write bandwidth in MiByte/s
system.mem_ctrls0.peakBW                     12800.00                       # Theoretical peak bandwidth in MiByte/s
system.mem_ctrls0.busUtil                        2.78                       # Data bus utilization in percentage
system.mem_ctrls0.busUtilRead                    1.78                       # Data bus utilization in percentage for reads
system.mem_ctrls0.busUtilWrite                   1.00                       # Data bus utilization in percentage for writes
system.mem_ctrls0.avgRdQLen                      1.22                       # Average read queue length when enqueuing
system.mem_ctrls0.avgWrQLen                      2.96                       # Average write queue length when enqueuing
system.mem_ctrls0.readRowHits                  246413                       # Number of row buffer hits during reads
system.mem_ctrls0.writeRowHits                 110762                       # Number of row buffer hits during writes
system.mem_ctrls0.readRowHitRate                74.62                       # Row buffer hit rate for reads
system.mem_ctrls0.writeRowHitRate               59.51                       # Row buffer hit rate for writes
system.mem_ctrls0.avgGap                    179898.17                       # Average gap between requests
system.mem_ctrls0.pageHitRate                   69.17                       # Row buffer hit rate, read and write combined
system.mem_ctrls0.memoryStateTime::IDLE   15183828000                       # Time in different power states
system.mem_ctrls0.memoryStateTime::REF     3101800000                       # Time in different power states
system.mem_ctrls0.memoryStateTime::PRE_PDN            0                       # Time in different power states
system.mem_ctrls0.memoryStateTime::ACT    74607915500                       # Time in different power states
system.mem_ctrls0.memoryStateTime::ACT_PDN            0                       # Time in different power states
system.mem_ctrls0.actEnergy::0              606962160                       # Energy for activate commands per rank (pJ)
system.mem_ctrls0.actEnergy::1              596174040                       # Energy for activate commands per rank (pJ)
system.mem_ctrls0.preEnergy::0              331179750                       # Energy for precharge commands per rank (pJ)
system.mem_ctrls0.preEnergy::1              325293375                       # Energy for precharge commands per rank (pJ)
system.mem_ctrls0.readEnergy::0            1292795400                       # Energy for read commands per rank (pJ)
system.mem_ctrls0.readEnergy::1            1282671000                       # Energy for read commands per rank (pJ)
system.mem_ctrls0.writeEnergy::0            604454400                       # Energy for write commands per rank (pJ)
system.mem_ctrls0.writeEnergy::1            601655040                       # Energy for write commands per rank (pJ)
system.mem_ctrls0.refreshEnergy::0         6067120800                       # Energy for refresh commands per rank (pJ)
system.mem_ctrls0.refreshEnergy::1         6067120800                       # Energy for refresh commands per rank (pJ)
system.mem_ctrls0.actBackEnergy::0        38605162635                       # Energy for active background per rank (pJ)
system.mem_ctrls0.actBackEnergy::1        37883843595                       # Energy for active background per rank (pJ)
system.mem_ctrls0.preBackEnergy::0        21869955750                       # Energy for precharge background per rank (pJ)
system.mem_ctrls0.preBackEnergy::1        22502691750                       # Energy for precharge background per rank (pJ)
system.mem_ctrls0.totalEnergy::0          69377630895                       # Total energy per rank (pJ)
system.mem_ctrls0.totalEnergy::1          69259449600                       # Total energy per rank (pJ)
system.mem_ctrls0.averagePower::0          746.877648                       # Core power per rank (mW)
system.mem_ctrls0.averagePower::1          745.605380                       # Core power per rank (mW)
system.mem_ctrls1.bytes_read::ruby.dir_cntrl1     20711744                       # Number of bytes read from this memory
system.mem_ctrls1.bytes_read::total          20711744                       # Number of bytes read from this memory
system.mem_ctrls1.bytes_written::ruby.dir_cntrl1     11492352                       # Number of bytes written to this memory
system.mem_ctrls1.bytes_written::total       11492352                       # Number of bytes written to this memory
system.mem_ctrls1.num_reads::ruby.dir_cntrl1       323621                       # Number of read requests responded to by this memory
system.mem_ctrls1.num_reads::total             323621                       # Number of read requests responded to by this memory
system.mem_ctrls1.num_writes::ruby.dir_cntrl1       179568                       # Number of write requests responded to by this memory
system.mem_ctrls1.num_writes::total            179568                       # Number of write requests responded to by this memory
system.mem_ctrls1.bw_read::ruby.dir_cntrl1    222954475                       # Total read bandwidth from this memory (bytes/s)
system.mem_ctrls1.bw_read::total            222954475                       # Total read bandwidth from this memory (bytes/s)
system.mem_ctrls1.bw_write::ruby.dir_cntrl1    123711036                       # Write bandwidth from this memory (bytes/s)
system.mem_ctrls1.bw_write::total           123711036                       # Write bandwidth from this memory (bytes/s)
system.mem_ctrls1.bw_total::ruby.dir_cntrl1    346665511                       # Total bandwidth to/from this memory (bytes/s)
system.mem_ctrls1.bw_total::total           346665511                       # Total bandwidth to/from this memory (bytes/s)
system.mem_ctrls1.readReqs                     323621                       # Number of read requests accepted
system.mem_ctrls1.writeReqs                    179568                       # Number of write requests accepted
system.mem_ctrls1.readBursts                   323621                       # Number of DRAM read bursts, including those serviced by the write queue
system.mem_ctrls1.writeBursts                  179568                       # Number of DRAM write bursts, including those merged in the write queue
system.mem_ctrls1.bytesReadDRAM              20709824                       # Total number of bytes read from DRAM
system.mem_ctrls1.bytesReadWrQ                   1920                       # Total number of bytes read from write queue
system.mem_ctrls1.bytesWritten               11492224                       # Total number of bytes written to DRAM
system.mem_ctrls1.bytesReadSys               20711744                       # Total read bytes from the system interface side
system.mem_ctrls1.bytesWrittenSys            11492352                       # Total written bytes from the system interface side
system.mem_ctrls1.servicedByWrQ                    30                       # Number of DRAM read bursts serviced by the write queue
system.mem_ctrls1.mergedWrBursts                    0                       # Number of DRAM write bursts merged with an existing one
system.mem_ctrls1.neitherReadNorWriteReqs            0                       # Number of requests that are neither read nor write
system.mem_ctrls1.perBankRdBursts::0            19933                       # Per bank write bursts
system.mem_ctrls1.perBankRdBursts::1            20583                       # Per bank write bursts
system.mem_ctrls1.perBankRdBursts::2            20115                       # Per bank write bursts
system.mem_ctrls1.perBankRdBursts::3            20455                       # Per bank write bursts
system.mem_ctrls1.perBankRdBursts::4            20175                       # Per bank write bursts
system.mem_ctrls1.perBankRdBursts::5            20622                       # Per bank write bursts
system.mem_ctrls1.perBankRdBursts::6            20240                       # Per bank write bursts
system.mem_ctrls1.perBankRdBursts::7            20406                       # Per bank write bursts
system.mem_ctrls1.perBankRdBursts::8            20266                       # Per bank write bursts
system.mem_ctrls1.perBankRdBursts::9            20431                       # Per bank write bursts
system.mem_ctrls1.perBankRdBursts::10           20210                       # Per bank write bursts
system.mem_ctrls1.perBankRdBursts::11           20532                       # Per bank write bursts
system.mem_ctrls1.perBankRdBursts::12           19850                       # Per bank write bursts
system.mem_ctrls1.perBankRdBursts::13           19766                       # Per bank write bursts
system.mem_ctrls1.perBankRdBursts::14           19960                       # Per bank write bursts
system.mem_ctrls1.perBankRdBursts::15           20047                       # Per bank write bursts
system.mem_ctrls1.perBankWrBursts::0            11102                       # Per bank write bursts
system.mem_ctrls1.perBankWrBursts::1            11263                       # Per bank write bursts
system.mem_ctrls1.perBankWrBursts::2            11280                       # Per bank write bursts
system.mem_ctrls1.perBankWrBursts::3            11246                       # Per bank write bursts
system.mem_ctrls1.perBankWrBursts::4            11220                       # Per bank write bursts
system.mem_ctrls1.perBankWrBursts::5            11519                       # Per bank write bursts
system.mem_ctrls1.perBankWrBursts::6            11139                       # Per bank write bursts
system.mem_ctrls1.perBankWrBursts::7            11261                       # Per bank write bursts
system.mem_ctrls1.perBankWrBursts::8            11483                       # Per bank write bursts
system.mem_ctrls1.perBankWrBursts::9            11296                       # Per bank write bursts
system.mem_ctrls1.perBankWrBursts::10           11120                       # Per bank write bursts
system.mem_ctrls1.perBankWrBursts::11           11295                       # Per bank write bursts
system.mem_ctrls1.perBankWrBursts::12           10949                       # Per bank write bursts
system.mem_ctrls1.perBankWrBursts::13           10904                       # Per bank write bursts
system.mem_ctrls1.perBankWrBursts::14           11294                       # Per bank write bursts
system.mem_ctrls1.perBankWrBursts::15           11195                       # Per bank write bursts
system.mem_ctrls1.numRdRetry                     2516                       # Number of times read queue was full causing retry
system.mem_ctrls1.numWrRetry                     1761                       # Number of times write queue was full causing retry
system.mem_ctrls1.totGap                  92895907500                       # Total gap between requests
system.mem_ctrls1.readPktSize::0                    0                       # Read request sizes (log2)
system.mem_ctrls1.readPktSize::1                    0                       # Read request sizes (log2)
system.mem_ctrls1.readPktSize::2                    0                       # Read request sizes (log2)
system.mem_ctrls1.readPktSize::3                    0                       # Read request sizes (log2)
system.mem_ctrls1.readPktSize::4                    0                       # Read request sizes (log2)
system.mem_ctrls1.readPktSize::5                    0                       # Read request sizes (log2)
system.mem_ctrls1.readPktSize::6               323621                       # Read request sizes (log2)
system.mem_ctrls1.writePktSize::0                   0                       # Write request sizes (log2)
system.mem_ctrls1.writePktSize::1                   0                       # Write request sizes (log2)
system.mem_ctrls1.writePktSize::2                   0                       # Write request sizes (log2)
system.mem_ctrls1.writePktSize::3                   0                       # Write request sizes (log2)
system.mem_ctrls1.writePktSize::4                   0                       # Write request sizes (log2)
system.mem_ctrls1.writePktSize::5                   0                       # Write request sizes (log2)
system.mem_ctrls1.writePktSize::6              179568                       # Write request sizes (log2)
system.mem_ctrls1.rdQLenPdf::0                 152067                       # What read queue length does an incoming req see
system.mem_ctrls1.rdQLenPdf::1                  34627                       # What read queue length does an incoming req see
system.mem_ctrls1.rdQLenPdf::2                  27077                       # What read queue length does an incoming req see
system.mem_ctrls1.rdQLenPdf::3                  21091                       # What read queue length does an incoming req see
system.mem_ctrls1.rdQLenPdf::4                  16433                       # What read queue length does an incoming req see
system.mem_ctrls1.rdQLenPdf::5                  12893                       # What read queue length does an incoming req see
system.mem_ctrls1.rdQLenPdf::6                  10111                       # What read queue length does an incoming req see
system.mem_ctrls1.rdQLenPdf::7                   8181                       # What read queue length does an incoming req see
system.mem_ctrls1.rdQLenPdf::8                   6648                       # What read queue length does an incoming req see
system.mem_ctrls1.rdQLenPdf::9                   5339                       # What read queue length does an incoming req see
system.mem_ctrls1.rdQLenPdf::10                  4382                       # What read queue length does an incoming req see
system.mem_ctrls1.rdQLenPdf::11                  3508                       # What read queue length does an incoming req see
system.mem_ctrls1.rdQLenPdf::12                  2887                       # What read queue length does an incoming req see
system.mem_ctrls1.rdQLenPdf::13                  2384                       # What read queue length does an incoming req see
system.mem_ctrls1.rdQLenPdf::14                  2015                       # What read queue length does an incoming req see
system.mem_ctrls1.rdQLenPdf::15                  1626                       # What read queue length does an incoming req see
system.mem_ctrls1.rdQLenPdf::16                  1365                       # What read queue length does an incoming req see
system.mem_ctrls1.rdQLenPdf::17                  1151                       # What read queue length does an incoming req see
system.mem_ctrls1.rdQLenPdf::18                  1060                       # What read queue length does an incoming req see
system.mem_ctrls1.rdQLenPdf::19                   906                       # What read queue length does an incoming req see
system.mem_ctrls1.rdQLenPdf::20                   728                       # What read queue length does an incoming req see
system.mem_ctrls1.rdQLenPdf::21                   665                       # What read queue length does an incoming req see
system.mem_ctrls1.rdQLenPdf::22                   583                       # What read queue length does an incoming req see
system.mem_ctrls1.rdQLenPdf::23                   504                       # What read queue length does an incoming req see
system.mem_ctrls1.rdQLenPdf::24                   475                       # What read queue length does an incoming req see
system.mem_ctrls1.rdQLenPdf::25                   422                       # What read queue length does an incoming req see
system.mem_ctrls1.rdQLenPdf::26                   375                       # What read queue length does an incoming req see
system.mem_ctrls1.rdQLenPdf::27                   349                       # What read queue length does an incoming req see
system.mem_ctrls1.rdQLenPdf::28                   316                       # What read queue length does an incoming req see
system.mem_ctrls1.rdQLenPdf::29                   282                       # What read queue length does an incoming req see
system.mem_ctrls1.rdQLenPdf::30                   275                       # What read queue length does an incoming req see
system.mem_ctrls1.rdQLenPdf::31                  2866                       # What read queue length does an incoming req see
system.mem_ctrls1.wrQLenPdf::0                  32006                       # What write queue length does an incoming req see
system.mem_ctrls1.wrQLenPdf::1                  34375                       # What write queue length does an incoming req see
system.mem_ctrls1.wrQLenPdf::2                  34811                       # What write queue length does an incoming req see
system.mem_ctrls1.wrQLenPdf::3                  34705                       # What write queue length does an incoming req see
system.mem_ctrls1.wrQLenPdf::4                  34368                       # What write queue length does an incoming req see
system.mem_ctrls1.wrQLenPdf::5                   3421                       # What write queue length does an incoming req see
system.mem_ctrls1.wrQLenPdf::6                   2574                       # What write queue length does an incoming req see
system.mem_ctrls1.wrQLenPdf::7                   3308                       # What write queue length does an incoming req see
system.mem_ctrls1.bytesPerActivate::samples       150693                       # Bytes accessed per row activation
system.mem_ctrls1.bytesPerActivate::mean   213.688386                       # Bytes accessed per row activation
system.mem_ctrls1.bytesPerActivate::gmean   160.328973                       # Bytes accessed per row activation
system.mem_ctrls1.bytesPerActivate::stdev   175.661075                       # Bytes accessed per row activation
system.mem_ctrls1.bytesPerActivate::0-127        48096     31.92%     31.92% # Bytes accessed per row activation
system.mem_ctrls1.bytesPerActivate::128-255        42825     28.42%     60.34% # Bytes accessed per row activation
system.mem_ctrls1.bytesPerActivate::256-383        43367     28.78%     89.11% # Bytes accessed per row activation
system.mem_ctrls1.bytesPerActivate::384-511         6565      4.36%     93.47% # Bytes accessed per row activation
system.mem_ctrls1.bytesPerActivate::512-639         3986      2.65%     96.12% # Bytes accessed per row activation
system.mem_ctrls1.bytesPerActivate::640-767         2114      1.40%     97.52% # Bytes accessed per row activation
system.mem_ctrls1.bytesPerActivate::768-895         1263      0.84%     98.36% # Bytes accessed per row activation
system.mem_ctrls1.bytesPerActivate::896-1023          891      0.59%     98.95% # Bytes accessed per row activation
system.mem_ctrls1.bytesPerActivate::1024-1151         1586      1.05%    100.00% # Bytes accessed per row activation
system.mem_ctrls1.bytesPerActivate::total       150693                       # Bytes accessed per row activation
system.mem_ctrls1.rdPerTurnAround::samples        32260                       # Reads before turning the bus around for writes
system.mem_ctrls1.rdPerTurnAround::mean     10.030533                       # Reads before turning the bus around for writes
system.mem_ctrls1.rdPerTurnAround::stdev    19.919564                       # Reads before turning the bus around for writes
system.mem_ctrls1.rdPerTurnAround::0-127        32254     99.98%     99.98% # Reads before turning the bus around for writes
system.mem_ctrls1.rdPerTurnAround::128-255            4      0.01%     99.99% # Reads before turning the bus around for writes
system.mem_ctrls1.rdPerTurnAround::1152-1279            1      0.00%    100.00% # Reads before turning the bus around for writes
system.mem_ctrls1.rdPerTurnAround::2816-2943            1      0.00%    100.00% # Reads before turning the bus around for writes
system.mem_ctrls1.rdPerTurnAround::total        32260                       # Reads before turning the bus around for writes
system.mem_ctrls1.wrPerTurnAround::samples        32260                       # Writes before turning the bus around for reads
system.mem_ctrls1.wrPerTurnAround::mean      5.566212                       # Writes before turning the bus around for reads
system.mem_ctrls1.wrPerTurnAround::gmean     5.414506                       # Writes before turning the bus around for reads
system.mem_ctrls1.wrPerTurnAround::stdev     1.680072                       # Writes before turning the bus around for reads
system.mem_ctrls1.wrPerTurnAround::4-7          29820     92.44%     92.44% # Writes before turning the bus around for reads
system.mem_ctrls1.wrPerTurnAround::8-11          1734      5.38%     97.81% # Writes before turning the bus around for reads
system.mem_ctrls1.wrPerTurnAround::12-15          388      1.20%     99.01% # Writes before turning the bus around for reads
system.mem_ctrls1.wrPerTurnAround::16-19          318      0.99%    100.00% # Writes before turning the bus around for reads
system.mem_ctrls1.wrPerTurnAround::total        32260                       # Writes before turning the bus around for reads
system.mem_ctrls1.totQLat                 13319187672                       # Total ticks spent queuing
system.mem_ctrls1.totMemAccLat            19386518922                       # Total ticks spent from burst creation until serviced by the DRAM
system.mem_ctrls1.totBusLat                1617955000                       # Total ticks spent in databus transfers
system.mem_ctrls1.avgQLat                    41160.56                       # Average queueing delay per DRAM burst
system.mem_ctrls1.avgBusLat                   5000.00                       # Average bus latency per DRAM burst
system.mem_ctrls1.avgMemAccLat               59910.56                       # Average memory access latency per DRAM burst
system.mem_ctrls1.avgRdBW                      222.93                       # Average DRAM read bandwidth in MiByte/s
system.mem_ctrls1.avgWrBW                      123.71                       # Average achieved write bandwidth in MiByte/s
system.mem_ctrls1.avgRdBWSys                   222.95                       # Average system read bandwidth in MiByte/s
system.mem_ctrls1.avgWrBWSys                   123.71                       # Average system write bandwidth in MiByte/s
system.mem_ctrls1.peakBW                     12800.00                       # Theoretical peak bandwidth in MiByte/s
system.mem_ctrls1.busUtil                        2.71                       # Data bus utilization in percentage
system.mem_ctrls1.busUtilRead                    1.74                       # Data bus utilization in percentage for reads
system.mem_ctrls1.busUtilWrite                   0.97                       # Data bus utilization in percentage for writes
system.mem_ctrls1.avgRdQLen                      1.20                       # Average read queue length when enqueuing
system.mem_ctrls1.avgWrQLen                      2.97                       # Average write queue length when enqueuing
system.mem_ctrls1.readRowHits                  243007                       # Number of row buffer hits during reads
system.mem_ctrls1.writeRowHits                 109448                       # Number of row buffer hits during writes
system.mem_ctrls1.readRowHitRate                75.10                       # Row buffer hit rate for reads
system.mem_ctrls1.writeRowHitRate               60.95                       # Row buffer hit rate for writes
system.mem_ctrls1.avgGap                    184614.34                       # Average gap between requests
system.mem_ctrls1.pageHitRate                   70.05                       # Row buffer hit rate, read and write combined
system.mem_ctrls1.memoryStateTime::IDLE   15392212000                       # Time in different power states
system.mem_ctrls1.memoryStateTime::REF     3101800000                       # Time in different power states
system.mem_ctrls1.memoryStateTime::PRE_PDN            0                       # Time in different power states
system.mem_ctrls1.memoryStateTime::ACT    74399192000                       # Time in different power states
system.mem_ctrls1.memoryStateTime::ACT_PDN            0                       # Time in different power states
system.mem_ctrls1.actEnergy::0              574673400                       # Energy for activate commands per rank (pJ)
system.mem_ctrls1.actEnergy::1              564512760                       # Energy for activate commands per rank (pJ)
system.mem_ctrls1.preEnergy::0              313561875                       # Energy for precharge commands per rank (pJ)
system.mem_ctrls1.preEnergy::1              308017875                       # Energy for precharge commands per rank (pJ)
system.mem_ctrls1.readEnergy::0            1267640400                       # Energy for read commands per rank (pJ)
system.mem_ctrls1.readEnergy::1            1256244600                       # Energy for read commands per rank (pJ)
system.mem_ctrls1.writeEnergy::0            583381440                       # Energy for write commands per rank (pJ)
system.mem_ctrls1.writeEnergy::1            580173840                       # Energy for write commands per rank (pJ)
system.mem_ctrls1.refreshEnergy::0         6067120800                       # Energy for refresh commands per rank (pJ)
system.mem_ctrls1.refreshEnergy::1         6067120800                       # Energy for refresh commands per rank (pJ)
system.mem_ctrls1.actBackEnergy::0        38089790865                       # Energy for active background per rank (pJ)
system.mem_ctrls1.actBackEnergy::1        37128502395                       # Energy for active background per rank (pJ)
system.mem_ctrls1.preBackEnergy::0        22322036250                       # Energy for precharge background per rank (pJ)
system.mem_ctrls1.preBackEnergy::1        23165271750                       # Energy for precharge background per rank (pJ)
system.mem_ctrls1.totalEnergy::0          69218205030                       # Total energy per rank (pJ)
system.mem_ctrls1.totalEnergy::1          69069844020                       # Total energy per rank (pJ)
system.mem_ctrls1.averagePower::0          745.161365                       # Core power per rank (mW)
system.mem_ctrls1.averagePower::1          743.564200                       # Core power per rank (mW)
system.mem_ctrls2.bytes_read::ruby.dir_cntrl2     20712448                       # Number of bytes read from this memory
system.mem_ctrls2.bytes_read::total          20712448                       # Number of bytes read from this memory
system.mem_ctrls2.bytes_written::ruby.dir_cntrl2     11492480                       # Number of bytes written to this memory
system.mem_ctrls2.bytes_written::total       11492480                       # Number of bytes written to this memory
system.mem_ctrls2.num_reads::ruby.dir_cntrl2       323632                       # Number of read requests responded to by this memory
system.mem_ctrls2.num_reads::total             323632                       # Number of read requests responded to by this memory
system.mem_ctrls2.num_writes::ruby.dir_cntrl2       179570                       # Number of write requests responded to by this memory
system.mem_ctrls2.num_writes::total            179570                       # Number of write requests responded to by this memory
system.mem_ctrls2.bw_read::ruby.dir_cntrl2    222962053                       # Total read bandwidth from this memory (bytes/s)
system.mem_ctrls2.bw_read::total            222962053                       # Total read bandwidth from this memory (bytes/s)
system.mem_ctrls2.bw_write::ruby.dir_cntrl2    123712414                       # Write bandwidth from this memory (bytes/s)
system.mem_ctrls2.bw_write::total           123712414                       # Write bandwidth from this memory (bytes/s)
system.mem_ctrls2.bw_total::ruby.dir_cntrl2    346674467                       # Total bandwidth to/from this memory (bytes/s)
system.mem_ctrls2.bw_total::total           346674467                       # Total bandwidth to/from this memory (bytes/s)
system.mem_ctrls2.readReqs                     323632                       # Number of read requests accepted
system.mem_ctrls2.writeReqs                    179570                       # Number of write requests accepted
system.mem_ctrls2.readBursts                   323632                       # Number of DRAM read bursts, including those serviced by the write queue
system.mem_ctrls2.writeBursts                  179570                       # Number of DRAM write bursts, including those merged in the write queue
system.mem_ctrls2.bytesReadDRAM              20711424                       # Total number of bytes read from DRAM
system.mem_ctrls2.bytesReadWrQ                   1024                       # Total number of bytes read from write queue
system.mem_ctrls2.bytesWritten               11492480                       # Total number of bytes written to DRAM
system.mem_ctrls2.bytesReadSys               20712448                       # Total read bytes from the system interface side
system.mem_ctrls2.bytesWrittenSys            11492480                       # Total written bytes from the system interface side
system.mem_ctrls2.servicedByWrQ                    16                       # Number of DRAM read bursts serviced by the write queue
system.mem_ctrls2.mergedWrBursts                    0                       # Number of DRAM write bursts merged with an existing one
system.mem_ctrls2.neitherReadNorWriteReqs            0                       # Number of requests that are neither read nor write
system.mem_ctrls2.perBankRdBursts::0            19972                       # Per bank write bursts
system.mem_ctrls2.perBankRdBursts::1            20597                       # Per bank write bursts
system.mem_ctrls2.perBankRdBursts::2            20125                       # Per bank write bursts
system.mem_ctrls2.perBankRdBursts::3            20544                       # Per bank write bursts
system.mem_ctrls2.perBankRdBursts::4            20156                       # Per bank write bursts
system.mem_ctrls2.perBankRdBursts::5            20582                       # Per bank write bursts
system.mem_ctrls2.perBankRdBursts::6            20223                       # Per bank write bursts
system.mem_ctrls2.perBankRdBursts::7            20349                       # Per bank write bursts
system.mem_ctrls2.perBankRdBursts::8            20223                       # Per bank write bursts
system.mem_ctrls2.perBankRdBursts::9            20469                       # Per bank write bursts
system.mem_ctrls2.perBankRdBursts::10           20217                       # Per bank write bursts
system.mem_ctrls2.perBankRdBursts::11           20593                       # Per bank write bursts
system.mem_ctrls2.perBankRdBursts::12           19859                       # Per bank write bursts
system.mem_ctrls2.perBankRdBursts::13           19710                       # Per bank write bursts
system.mem_ctrls2.perBankRdBursts::14           19943                       # Per bank write bursts
system.mem_ctrls2.perBankRdBursts::15           20054                       # Per bank write bursts
system.mem_ctrls2.perBankWrBursts::0            11103                       # Per bank write bursts
system.mem_ctrls2.perBankWrBursts::1            11266                       # Per bank write bursts
system.mem_ctrls2.perBankWrBursts::2            11266                       # Per bank write bursts
system.mem_ctrls2.perBankWrBursts::3            11266                       # Per bank write bursts
system.mem_ctrls2.perBankWrBursts::4            11205                       # Per bank write bursts
system.mem_ctrls2.perBankWrBursts::5            11508                       # Per bank write bursts
system.mem_ctrls2.perBankWrBursts::6            11152                       # Per bank write bursts
system.mem_ctrls2.perBankWrBursts::7            11265                       # Per bank write bursts
system.mem_ctrls2.perBankWrBursts::8            11458                       # Per bank write bursts
system.mem_ctrls2.perBankWrBursts::9            11303                       # Per bank write bursts
system.mem_ctrls2.perBankWrBursts::10           11115                       # Per bank write bursts
system.mem_ctrls2.perBankWrBursts::11           11306                       # Per bank write bursts
system.mem_ctrls2.perBankWrBursts::12           10957                       # Per bank write bursts
system.mem_ctrls2.perBankWrBursts::13           10900                       # Per bank write bursts
system.mem_ctrls2.perBankWrBursts::14           11296                       # Per bank write bursts
system.mem_ctrls2.perBankWrBursts::15           11204                       # Per bank write bursts
system.mem_ctrls2.numRdRetry                     2607                       # Number of times read queue was full causing retry
system.mem_ctrls2.numWrRetry                     1872                       # Number of times write queue was full causing retry
system.mem_ctrls2.totGap                  92896600000                       # Total gap between requests
system.mem_ctrls2.readPktSize::0                    0                       # Read request sizes (log2)
system.mem_ctrls2.readPktSize::1                    0                       # Read request sizes (log2)
system.mem_ctrls2.readPktSize::2                    0                       # Read request sizes (log2)
system.mem_ctrls2.readPktSize::3                    0                       # Read request sizes (log2)
system.mem_ctrls2.readPktSize::4                    0                       # Read request sizes (log2)
system.mem_ctrls2.readPktSize::5                    0                       # Read request sizes (log2)
system.mem_ctrls2.readPktSize::6               323632                       # Read request sizes (log2)
system.mem_ctrls2.writePktSize::0                   0                       # Write request sizes (log2)
system.mem_ctrls2.writePktSize::1                   0                       # Write request sizes (log2)
system.mem_ctrls2.writePktSize::2                   0                       # Write request sizes (log2)
system.mem_ctrls2.writePktSize::3                   0                       # Write request sizes (log2)
system.mem_ctrls2.writePktSize::4                   0                       # Write request sizes (log2)
system.mem_ctrls2.writePktSize::5                   0                       # Write request sizes (log2)
system.mem_ctrls2.writePktSize::6              179570                       # Write request sizes (log2)
system.mem_ctrls2.rdQLenPdf::0                 151917                       # What read queue length does an incoming req see
system.mem_ctrls2.rdQLenPdf::1                  33994                       # What read queue length does an incoming req see
system.mem_ctrls2.rdQLenPdf::2                  26930                       # What read queue length does an incoming req see
system.mem_ctrls2.rdQLenPdf::3                  20710                       # What read queue length does an incoming req see
system.mem_ctrls2.rdQLenPdf::4                  16344                       # What read queue length does an incoming req see
system.mem_ctrls2.rdQLenPdf::5                  12662                       # What read queue length does an incoming req see
system.mem_ctrls2.rdQLenPdf::6                  10018                       # What read queue length does an incoming req see
system.mem_ctrls2.rdQLenPdf::7                   8040                       # What read queue length does an incoming req see
system.mem_ctrls2.rdQLenPdf::8                   6450                       # What read queue length does an incoming req see
system.mem_ctrls2.rdQLenPdf::9                   5376                       # What read queue length does an incoming req see
system.mem_ctrls2.rdQLenPdf::10                  4415                       # What read queue length does an incoming req see
system.mem_ctrls2.rdQLenPdf::11                  3694                       # What read queue length does an incoming req see
system.mem_ctrls2.rdQLenPdf::12                  3089                       # What read queue length does an incoming req see
system.mem_ctrls2.rdQLenPdf::13                  2540                       # What read queue length does an incoming req see
system.mem_ctrls2.rdQLenPdf::14                  2144                       # What read queue length does an incoming req see
system.mem_ctrls2.rdQLenPdf::15                  1759                       # What read queue length does an incoming req see
system.mem_ctrls2.rdQLenPdf::16                  1464                       # What read queue length does an incoming req see
system.mem_ctrls2.rdQLenPdf::17                  1244                       # What read queue length does an incoming req see
system.mem_ctrls2.rdQLenPdf::18                  1110                       # What read queue length does an incoming req see
system.mem_ctrls2.rdQLenPdf::19                   929                       # What read queue length does an incoming req see
system.mem_ctrls2.rdQLenPdf::20                   861                       # What read queue length does an incoming req see
system.mem_ctrls2.rdQLenPdf::21                   776                       # What read queue length does an incoming req see
system.mem_ctrls2.rdQLenPdf::22                   713                       # What read queue length does an incoming req see
system.mem_ctrls2.rdQLenPdf::23                   640                       # What read queue length does an incoming req see
system.mem_ctrls2.rdQLenPdf::24                   561                       # What read queue length does an incoming req see
system.mem_ctrls2.rdQLenPdf::25                   496                       # What read queue length does an incoming req see
system.mem_ctrls2.rdQLenPdf::26                   428                       # What read queue length does an incoming req see
system.mem_ctrls2.rdQLenPdf::27                   390                       # What read queue length does an incoming req see
system.mem_ctrls2.rdQLenPdf::28                   328                       # What read queue length does an incoming req see
system.mem_ctrls2.rdQLenPdf::29                   286                       # What read queue length does an incoming req see
system.mem_ctrls2.rdQLenPdf::30                   292                       # What read queue length does an incoming req see
system.mem_ctrls2.rdQLenPdf::31                  3016                       # What read queue length does an incoming req see
system.mem_ctrls2.wrQLenPdf::0                  31934                       # What write queue length does an incoming req see
system.mem_ctrls2.wrQLenPdf::1                  34288                       # What write queue length does an incoming req see
system.mem_ctrls2.wrQLenPdf::2                  34716                       # What write queue length does an incoming req see
system.mem_ctrls2.wrQLenPdf::3                  34617                       # What write queue length does an incoming req see
system.mem_ctrls2.wrQLenPdf::4                  34234                       # What write queue length does an incoming req see
system.mem_ctrls2.wrQLenPdf::5                   3628                       # What write queue length does an incoming req see
system.mem_ctrls2.wrQLenPdf::6                   2673                       # What write queue length does an incoming req see
system.mem_ctrls2.wrQLenPdf::7                   3480                       # What write queue length does an incoming req see
system.mem_ctrls2.bytesPerActivate::samples       150274                       # Bytes accessed per row activation
system.mem_ctrls2.bytesPerActivate::mean   214.296552                       # Bytes accessed per row activation
system.mem_ctrls2.bytesPerActivate::gmean   160.760478                       # Bytes accessed per row activation
system.mem_ctrls2.bytesPerActivate::stdev   176.290954                       # Bytes accessed per row activation
system.mem_ctrls2.bytesPerActivate::0-127        47851     31.84%     31.84% # Bytes accessed per row activation
system.mem_ctrls2.bytesPerActivate::128-255        42424     28.23%     60.07% # Bytes accessed per row activation
system.mem_ctrls2.bytesPerActivate::256-383        43632     29.03%     89.11% # Bytes accessed per row activation
system.mem_ctrls2.bytesPerActivate::384-511         6597      4.39%     93.50% # Bytes accessed per row activation
system.mem_ctrls2.bytesPerActivate::512-639         3845      2.56%     96.06% # Bytes accessed per row activation
system.mem_ctrls2.bytesPerActivate::640-767         2090      1.39%     97.45% # Bytes accessed per row activation
system.mem_ctrls2.bytesPerActivate::768-895         1308      0.87%     98.32% # Bytes accessed per row activation
system.mem_ctrls2.bytesPerActivate::896-1023          887      0.59%     98.91% # Bytes accessed per row activation
system.mem_ctrls2.bytesPerActivate::1024-1151         1640      1.09%    100.00% # Bytes accessed per row activation
system.mem_ctrls2.bytesPerActivate::total       150274                       # Bytes accessed per row activation
system.mem_ctrls2.rdPerTurnAround::samples        32177                       # Reads before turning the bus around for writes
system.mem_ctrls2.rdPerTurnAround::mean     10.057246                       # Reads before turning the bus around for writes
system.mem_ctrls2.rdPerTurnAround::stdev    19.984296                       # Reads before turning the bus around for writes
system.mem_ctrls2.rdPerTurnAround::0-127        32172     99.98%     99.98% # Reads before turning the bus around for writes
system.mem_ctrls2.rdPerTurnAround::128-255            3      0.01%     99.99% # Reads before turning the bus around for writes
system.mem_ctrls2.rdPerTurnAround::1152-1279            1      0.00%    100.00% # Reads before turning the bus around for writes
system.mem_ctrls2.rdPerTurnAround::2816-2943            1      0.00%    100.00% # Reads before turning the bus around for writes
system.mem_ctrls2.rdPerTurnAround::total        32177                       # Reads before turning the bus around for writes
system.mem_ctrls2.wrPerTurnAround::samples        32177                       # Writes before turning the bus around for reads
system.mem_ctrls2.wrPerTurnAround::mean      5.580694                       # Writes before turning the bus around for reads
system.mem_ctrls2.wrPerTurnAround::gmean     5.423552                       # Writes before turning the bus around for reads
system.mem_ctrls2.wrPerTurnAround::stdev     1.711098                       # Writes before turning the bus around for reads
system.mem_ctrls2.wrPerTurnAround::4-7          29664     92.19%     92.19% # Writes before turning the bus around for reads
system.mem_ctrls2.wrPerTurnAround::8-11          1765      5.49%     97.68% # Writes before turning the bus around for reads
system.mem_ctrls2.wrPerTurnAround::12-15          427      1.33%     99.00% # Writes before turning the bus around for reads
system.mem_ctrls2.wrPerTurnAround::16-19          321      1.00%    100.00% # Writes before turning the bus around for reads
system.mem_ctrls2.wrPerTurnAround::total        32177                       # Writes before turning the bus around for reads
system.mem_ctrls2.totQLat                 13646316767                       # Total ticks spent queuing
system.mem_ctrls2.totMemAccLat            19714116767                       # Total ticks spent from burst creation until serviced by the DRAM
system.mem_ctrls2.totBusLat                1618080000                       # Total ticks spent in databus transfers
system.mem_ctrls2.avgQLat                    42168.24                       # Average queueing delay per DRAM burst
system.mem_ctrls2.avgBusLat                   5000.00                       # Average bus latency per DRAM burst
system.mem_ctrls2.avgMemAccLat               60918.24                       # Average memory access latency per DRAM burst
system.mem_ctrls2.avgRdBW                      222.95                       # Average DRAM read bandwidth in MiByte/s
system.mem_ctrls2.avgWrBW                      123.71                       # Average achieved write bandwidth in MiByte/s
system.mem_ctrls2.avgRdBWSys                   222.96                       # Average system read bandwidth in MiByte/s
system.mem_ctrls2.avgWrBWSys                   123.71                       # Average system write bandwidth in MiByte/s
system.mem_ctrls2.peakBW                     12800.00                       # Theoretical peak bandwidth in MiByte/s
system.mem_ctrls2.busUtil                        2.71                       # Data bus utilization in percentage
system.mem_ctrls2.busUtilRead                    1.74                       # Data bus utilization in percentage for reads
system.mem_ctrls2.busUtilWrite                   0.97                       # Data bus utilization in percentage for writes
system.mem_ctrls2.avgRdQLen                      1.20                       # Average read queue length when enqueuing
system.mem_ctrls2.avgWrQLen                      2.97                       # Average write queue length when enqueuing
system.mem_ctrls2.readRowHits                  243146                       # Number of row buffer hits during reads
system.mem_ctrls2.writeRowHits                 109757                       # Number of row buffer hits during writes
system.mem_ctrls2.readRowHitRate                75.13                       # Row buffer hit rate for reads
system.mem_ctrls2.writeRowHitRate               61.12                       # Row buffer hit rate for writes
system.mem_ctrls2.avgGap                    184610.95                       # Average gap between requests
system.mem_ctrls2.pageHitRate                   70.13                       # Row buffer hit rate, read and write combined
system.mem_ctrls2.memoryStateTime::IDLE   15439482750                       # Time in different power states
system.mem_ctrls2.memoryStateTime::REF     3101800000                       # Time in different power states
system.mem_ctrls2.memoryStateTime::PRE_PDN            0                       # Time in different power states
system.mem_ctrls2.memoryStateTime::ACT    74351805250                       # Time in different power states
system.mem_ctrls2.memoryStateTime::ACT_PDN            0                       # Time in different power states
system.mem_ctrls2.actEnergy::0              573735960                       # Energy for activate commands per rank (pJ)
system.mem_ctrls2.actEnergy::1              562305240                       # Energy for activate commands per rank (pJ)
system.mem_ctrls2.preEnergy::0              313050375                       # Energy for precharge commands per rank (pJ)
system.mem_ctrls2.preEnergy::1              306813375                       # Energy for precharge commands per rank (pJ)
system.mem_ctrls2.readEnergy::0            1267788600                       # Energy for read commands per rank (pJ)
system.mem_ctrls2.readEnergy::1            1256307000                       # Energy for read commands per rank (pJ)
system.mem_ctrls2.writeEnergy::0            583387920                       # Energy for write commands per rank (pJ)
system.mem_ctrls2.writeEnergy::1            580193280                       # Energy for write commands per rank (pJ)
system.mem_ctrls2.refreshEnergy::0         6067120800                       # Energy for refresh commands per rank (pJ)
system.mem_ctrls2.refreshEnergy::1         6067120800                       # Energy for refresh commands per rank (pJ)
system.mem_ctrls2.actBackEnergy::0        37978052625                       # Energy for active background per rank (pJ)
system.mem_ctrls2.actBackEnergy::1        37061674740                       # Energy for active background per rank (pJ)
system.mem_ctrls2.preBackEnergy::0        22420052250                       # Energy for precharge background per rank (pJ)
system.mem_ctrls2.preBackEnergy::1        23223892500                       # Energy for precharge background per rank (pJ)
system.mem_ctrls2.totalEnergy::0          69203188530                       # Total energy per rank (pJ)
system.mem_ctrls2.totalEnergy::1          69058306935                       # Total energy per rank (pJ)
system.mem_ctrls2.averagePower::0          744.999707                       # Core power per rank (mW)
system.mem_ctrls2.averagePower::1          743.439999                       # Core power per rank (mW)
system.mem_ctrls3.bytes_read::ruby.dir_cntrl3     20690368                       # Number of bytes read from this memory
system.mem_ctrls3.bytes_read::total          20690368                       # Number of bytes read from this memory
system.mem_ctrls3.bytes_written::ruby.dir_cntrl3     11491072                       # Number of bytes written to this memory
system.mem_ctrls3.bytes_written::total       11491072                       # Number of bytes written to this memory
system.mem_ctrls3.num_reads::ruby.dir_cntrl3       323287                       # Number of read requests responded to by this memory
system.mem_ctrls3.num_reads::total             323287                       # Number of read requests responded to by this memory
system.mem_ctrls3.num_writes::ruby.dir_cntrl3       179548                       # Number of write requests responded to by this memory
system.mem_ctrls3.num_writes::total            179548                       # Number of write requests responded to by this memory
system.mem_ctrls3.bw_read::ruby.dir_cntrl3    222724370                       # Total read bandwidth from this memory (bytes/s)
system.mem_ctrls3.bw_read::total            222724370                       # Total read bandwidth from this memory (bytes/s)
system.mem_ctrls3.bw_write::ruby.dir_cntrl3    123697257                       # Write bandwidth from this memory (bytes/s)
system.mem_ctrls3.bw_write::total           123697257                       # Write bandwidth from this memory (bytes/s)
system.mem_ctrls3.bw_total::ruby.dir_cntrl3    346421627                       # Total bandwidth to/from this memory (bytes/s)
system.mem_ctrls3.bw_total::total           346421627                       # Total bandwidth to/from this memory (bytes/s)
system.mem_ctrls3.readReqs                     323288                       # Number of read requests accepted
system.mem_ctrls3.writeReqs                    179548                       # Number of write requests accepted
system.mem_ctrls3.readBursts                   323288                       # Number of DRAM read bursts, including those serviced by the write queue
system.mem_ctrls3.writeBursts                  179548                       # Number of DRAM write bursts, including those merged in the write queue
system.mem_ctrls3.bytesReadDRAM              20689728                       # Total number of bytes read from DRAM
system.mem_ctrls3.bytesReadWrQ                    704                       # Total number of bytes read from write queue
system.mem_ctrls3.bytesWritten               11490944                       # Total number of bytes written to DRAM
system.mem_ctrls3.bytesReadSys               20690432                       # Total read bytes from the system interface side
system.mem_ctrls3.bytesWrittenSys            11491072                       # Total written bytes from the system interface side
system.mem_ctrls3.servicedByWrQ                    11                       # Number of DRAM read bursts serviced by the write queue
system.mem_ctrls3.mergedWrBursts                    0                       # Number of DRAM write bursts merged with an existing one
system.mem_ctrls3.neitherReadNorWriteReqs            0                       # Number of requests that are neither read nor write
system.mem_ctrls3.perBankRdBursts::0            19974                       # Per bank write bursts
system.mem_ctrls3.perBankRdBursts::1            20568                       # Per bank write bursts
system.mem_ctrls3.perBankRdBursts::2            20050                       # Per bank write bursts
system.mem_ctrls3.perBankRdBursts::3            20502                       # Per bank write bursts
system.mem_ctrls3.perBankRdBursts::4            20089                       # Per bank write bursts
system.mem_ctrls3.perBankRdBursts::5            20560                       # Per bank write bursts
system.mem_ctrls3.perBankRdBursts::6            20246                       # Per bank write bursts
system.mem_ctrls3.perBankRdBursts::7            20331                       # Per bank write bursts
system.mem_ctrls3.perBankRdBursts::8            20226                       # Per bank write bursts
system.mem_ctrls3.perBankRdBursts::9            20449                       # Per bank write bursts
system.mem_ctrls3.perBankRdBursts::10           20256                       # Per bank write bursts
system.mem_ctrls3.perBankRdBursts::11           20503                       # Per bank write bursts
system.mem_ctrls3.perBankRdBursts::12           19791                       # Per bank write bursts
system.mem_ctrls3.perBankRdBursts::13           19697                       # Per bank write bursts
system.mem_ctrls3.perBankRdBursts::14           19980                       # Per bank write bursts
system.mem_ctrls3.perBankRdBursts::15           20055                       # Per bank write bursts
system.mem_ctrls3.perBankWrBursts::0            11106                       # Per bank write bursts
system.mem_ctrls3.perBankWrBursts::1            11267                       # Per bank write bursts
system.mem_ctrls3.perBankWrBursts::2            11269                       # Per bank write bursts
system.mem_ctrls3.perBankWrBursts::3            11253                       # Per bank write bursts
system.mem_ctrls3.perBankWrBursts::4            11206                       # Per bank write bursts
system.mem_ctrls3.perBankWrBursts::5            11505                       # Per bank write bursts
system.mem_ctrls3.perBankWrBursts::6            11130                       # Per bank write bursts
system.mem_ctrls3.perBankWrBursts::7            11257                       # Per bank write bursts
system.mem_ctrls3.perBankWrBursts::8            11454                       # Per bank write bursts
system.mem_ctrls3.perBankWrBursts::9            11314                       # Per bank write bursts
system.mem_ctrls3.perBankWrBursts::10           11113                       # Per bank write bursts
system.mem_ctrls3.perBankWrBursts::11           11316                       # Per bank write bursts
system.mem_ctrls3.perBankWrBursts::12           10953                       # Per bank write bursts
system.mem_ctrls3.perBankWrBursts::13           10906                       # Per bank write bursts
system.mem_ctrls3.perBankWrBursts::14           11295                       # Per bank write bursts
system.mem_ctrls3.perBankWrBursts::15           11202                       # Per bank write bursts
system.mem_ctrls3.numRdRetry                     3005                       # Number of times read queue was full causing retry
system.mem_ctrls3.numWrRetry                     1831                       # Number of times write queue was full causing retry
system.mem_ctrls3.totGap                  92895998000                       # Total gap between requests
system.mem_ctrls3.readPktSize::0                    0                       # Read request sizes (log2)
system.mem_ctrls3.readPktSize::1                    0                       # Read request sizes (log2)
system.mem_ctrls3.readPktSize::2                    0                       # Read request sizes (log2)
system.mem_ctrls3.readPktSize::3                    0                       # Read request sizes (log2)
system.mem_ctrls3.readPktSize::4                    0                       # Read request sizes (log2)
system.mem_ctrls3.readPktSize::5                    0                       # Read request sizes (log2)
system.mem_ctrls3.readPktSize::6               323288                       # Read request sizes (log2)
system.mem_ctrls3.writePktSize::0                   0                       # Write request sizes (log2)
system.mem_ctrls3.writePktSize::1                   0                       # Write request sizes (log2)
system.mem_ctrls3.writePktSize::2                   0                       # Write request sizes (log2)
system.mem_ctrls3.writePktSize::3                   0                       # Write request sizes (log2)
system.mem_ctrls3.writePktSize::4                   0                       # Write request sizes (log2)
system.mem_ctrls3.writePktSize::5                   0                       # Write request sizes (log2)
system.mem_ctrls3.writePktSize::6              179548                       # Write request sizes (log2)
system.mem_ctrls3.rdQLenPdf::0                 151232                       # What read queue length does an incoming req see
system.mem_ctrls3.rdQLenPdf::1                  34301                       # What read queue length does an incoming req see
system.mem_ctrls3.rdQLenPdf::2                  26942                       # What read queue length does an incoming req see
system.mem_ctrls3.rdQLenPdf::3                  21062                       # What read queue length does an incoming req see
system.mem_ctrls3.rdQLenPdf::4                  16238                       # What read queue length does an incoming req see
system.mem_ctrls3.rdQLenPdf::5                  12824                       # What read queue length does an incoming req see
system.mem_ctrls3.rdQLenPdf::6                  10149                       # What read queue length does an incoming req see
system.mem_ctrls3.rdQLenPdf::7                   8150                       # What read queue length does an incoming req see
system.mem_ctrls3.rdQLenPdf::8                   6609                       # What read queue length does an incoming req see
system.mem_ctrls3.rdQLenPdf::9                   5423                       # What read queue length does an incoming req see
system.mem_ctrls3.rdQLenPdf::10                  4324                       # What read queue length does an incoming req see
system.mem_ctrls3.rdQLenPdf::11                  3543                       # What read queue length does an incoming req see
system.mem_ctrls3.rdQLenPdf::12                  2836                       # What read queue length does an incoming req see
system.mem_ctrls3.rdQLenPdf::13                  2326                       # What read queue length does an incoming req see
system.mem_ctrls3.rdQLenPdf::14                  2073                       # What read queue length does an incoming req see
system.mem_ctrls3.rdQLenPdf::15                  1793                       # What read queue length does an incoming req see
system.mem_ctrls3.rdQLenPdf::16                  1471                       # What read queue length does an incoming req see
system.mem_ctrls3.rdQLenPdf::17                  1265                       # What read queue length does an incoming req see
system.mem_ctrls3.rdQLenPdf::18                  1105                       # What read queue length does an incoming req see
system.mem_ctrls3.rdQLenPdf::19                   938                       # What read queue length does an incoming req see
system.mem_ctrls3.rdQLenPdf::20                   817                       # What read queue length does an incoming req see
system.mem_ctrls3.rdQLenPdf::21                   723                       # What read queue length does an incoming req see
system.mem_ctrls3.rdQLenPdf::22                   586                       # What read queue length does an incoming req see
system.mem_ctrls3.rdQLenPdf::23                   531                       # What read queue length does an incoming req see
system.mem_ctrls3.rdQLenPdf::24                   477                       # What read queue length does an incoming req see
[...]
system.ruby.L2Cache_Controller.MT_MB.L1_GETS::total          726                      
system.ruby.L2Cache_Controller.MT_MB.L1_GETX |           2     16.67%     16.67% |           1      8.33%     25.00% |           0      0.00%     25.00% |           0      0.00%     25.00% |           0      0.00%     25.00% |           0      0.00%     25.00% |           0      0.00%     25.00% |           0      0.00%     25.00% |           1      8.33%     33.33% |           0      0.00%     33.33% |           0      0.00%     33.33% |           1      8.33%     41.67% |           0      0.00%     41.67% |           1      8.33%     50.00% |           0      0.00%     50.00% |           0      0.00%     50.00% |           0      0.00%     50.00% |           1      8.33%     58.33% |           0      0.00%     58.33% |           0      0.00%     58.33% |           0      0.00%     58.33% |           0      0.00%     58.33% |           0      0.00%     58.33% |           0      0.00%     58.33% |           0      0.00%     58.33% |           1      8.33%     66.67% |           1      8.33%     75.00% |           0      0.00%     75.00% |           0      0.00%     75.00% |           0      0.00%     75.00% |           0      0.00%     75.00% |           3     25.00%    100.00%
system.ruby.L2Cache_Controller.MT_MB.L1_GETX::total           12                      
system.ruby.L2Cache_Controller.MT_MB.L1_PUTX |           1      1.09%      1.09% |           1      1.09%      2.17% |           4      4.35%      6.52% |           2      2.17%      8.70% |           3      3.26%     11.96% |           3      3.26%     15.22% |           1      1.09%     16.30% |           2      2.17%     18.48% |          10     10.87%     29.35% |           1      1.09%     30.43% |           3      3.26%     33.70% |           2      2.17%     35.87% |           4      4.35%     40.22% |           4      4.35%     44.57% |           2      2.17%     46.74% |           2      2.17%     48.91% |           2      2.17%     51.09% |           1      1.09%     52.17% |           4      4.35%     56.52% |           3      3.26%     59.78% |           2      2.17%     61.96% |           5      5.43%     67.39% |           2      2.17%     69.57% |           6      6.52%     76.09% |           1      1.09%     77.17% |           3      3.26%     80.43% |           3      3.26%     83.70% |           6      6.52%     90.22% |           2      2.17%     92.39% |           1      1.09%     93.48% |           5      5.43%     98.91% |           1      1.09%    100.00%
system.ruby.L2Cache_Controller.MT_MB.L1_PUTX::total           92                      
system.ruby.L2Cache_Controller.MT_MB.Exclusive_Unblock |      152254      5.71%      5.71% |       82229      3.08%      8.79% |       81075      3.04%     11.83% |       81729      3.06%     14.89% |       80884      3.03%     17.92% |       80461      3.02%     20.94% |       80489      3.02%     23.95% |       80200      3.01%     26.96% |       80465      3.02%     29.98% |       81642      3.06%     33.04% |       82873      3.11%     36.14% |       81661      3.06%     39.20% |       81120      3.04%     42.24% |       79894      2.99%     45.24% |       79426      2.98%     48.21% |       79845      2.99%     51.21% |       81149      3.04%     54.25% |       80558      3.02%     57.27% |       81415      3.05%     60.32% |       81204      3.04%     63.36% |       80845      3.03%     66.39% |       83207      3.12%     69.51% |       81237      3.04%     72.55% |       80702      3.02%     75.58% |       80771      3.03%     78.61% |       81014      3.04%     81.64% |       80902      3.03%     84.67% |       80462      3.02%     87.69% |       80673      3.02%     90.71% |       80130      3.00%     93.72% |       82896      3.11%     96.82% |       84741      3.18%    100.00%
system.ruby.L2Cache_Controller.MT_MB.Exclusive_Unblock::total      2668153                      
system.ruby.L2Cache_Controller.MT_IIB.L1_GETS |           2     40.00%     40.00% |           0      0.00%     40.00% |           0      0.00%     40.00% |           0      0.00%     40.00% |           0      0.00%     40.00% |           0      0.00%     40.00% |           1     20.00%     60.00% |           0      0.00%     60.00% |           1     20.00%     80.00% |           0      0.00%     80.00% |           0      0.00%     80.00% |           1     20.00%    100.00% |           0      0.00%    100.00% |           0      0.00%    100.00% |           0      0.00%    100.00% |           0      0.00%    100.00% |           0      0.00%    100.00% |           0      0.00%    100.00% |           0      0.00%    100.00% |           0      0.00%    100.00% |           0      0.00%    100.00% |           0      0.00%    100.00% |           0      0.00%    100.00% |           0      0.00%    100.00% |           0      0.00%    100.00% |           0      0.00%    100.00% |           0      0.00%    100.00% |           0      0.00%    100.00% |           0      0.00%    100.00% |           0      0.00%    100.00% |           0      0.00%    100.00% |           0      0.00%    100.00%
system.ruby.L2Cache_Controller.MT_IIB.L1_GETS::total            5                      
system.ruby.L2Cache_Controller.MT_IIB.L1_PUTX |          13      3.51%      3.51% |           7      1.89%      5.41% |           7      1.89%      7.30% |           6      1.62%      8.92% |          11      2.97%     11.89% |          12      3.24%     15.14% |           7      1.89%     17.03% |           9      2.43%     19.46% |          17      4.59%     24.05% |           8      2.16%     26.22% |           9      2.43%     28.65% |          11      2.97%     31.62% |          13      3.51%     35.14% |          12      3.24%     38.38% |          12      3.24%     41.62% |           8      2.16%     43.78% |          15      4.05%     47.84% |          12      3.24%     51.08% |           9      2.43%     53.51% |          12      3.24%     56.76% |          16      4.32%     61.08% |          11      2.97%     64.05% |           8      2.16%     66.22% |          10      2.70%     68.92% |          18      4.86%     73.78% |          19      5.14%     78.92% |          10      2.70%     81.62% |          21      5.68%     87.30% |           7      1.89%     89.19% |          19      5.14%     94.32% |          13      3.51%     97.84% |           8      2.16%    100.00%
system.ruby.L2Cache_Controller.MT_IIB.L1_PUTX::total          370                      
system.ruby.L2Cache_Controller.MT_IIB.WB_Data |           0      0.00%      0.00% |           0      0.00%      0.00% |           0      0.00%      0.00% |           0      0.00%      0.00% |           0      0.00%      0.00% |           0      0.00%      0.00% |           0      0.00%      0.00% |           0      0.00%      0.00% |           0      0.00%      0.00% |           0      0.00%      0.00% |           0      0.00%      0.00% |           0      0.00%      0.00% |           0      0.00%      0.00% |           0      0.00%      0.00% |           0      0.00%      0.00% |           0      0.00%      0.00% |           0      0.00%      0.00% |           0      0.00%      0.00% |           0      0.00%      0.00% |           0      0.00%      0.00% |           0      0.00%      0.00% |           0      0.00%      0.00% |           0      0.00%      0.00% |           0      0.00%      0.00% |           0      0.00%      0.00% |           2    100.00%    100.00% |           0      0.00%    100.00% |           0      0.00%    100.00% |           0      0.00%    100.00% |           0      0.00%    100.00% |           0      0.00%    100.00% |           0      0.00%    100.00%
system.ruby.L2Cache_Controller.MT_IIB.WB_Data::total            2                      
system.ruby.L2Cache_Controller.MT_IIB.WB_Data_clean |        1812      3.21%      3.21% |        1805      3.20%      6.41% |        1754      3.11%      9.52% |        1728      3.06%     12.58% |        1754      3.11%     15.69% |        1725      3.06%     18.75% |        1711      3.03%     21.78% |        1761      3.12%     24.90% |        1758      3.12%     28.01% |        1773      3.14%     31.16% |        1738      3.08%     34.24% |        1799      3.19%     37.42% |        1819      3.22%     40.65% |        1781      3.16%     43.80% |        1766      3.13%     46.93% |        1792      3.18%     50.11% |        1786      3.17%     53.27% |        1815      3.22%     56.49% |        1748      3.10%     59.59% |        1774      3.14%     62.73% |        1783      3.16%     65.89% |        1786      3.17%     69.06% |        1765      3.13%     72.19% |        1705      3.02%     75.21% |        1804      3.20%     78.40% |        1806      3.20%     81.60% |        1744      3.09%     84.70% |        1716      3.04%     87.74% |        1756      3.11%     90.85% |        1717      3.04%     93.89% |        1752      3.10%     97.00% |        1695      3.00%    100.00%
system.ruby.L2Cache_Controller.MT_IIB.WB_Data_clean::total        56428                      
system.ruby.L2Cache_Controller.MT_IIB.Unblock |          31      1.47%      1.47% |          28      1.32%      2.79% |          64      3.03%      5.82% |          47      2.22%      8.04% |          52      2.46%     10.50% |          84      3.97%     14.47% |          88      4.16%     18.64% |          64      3.03%     21.67% |         127      6.01%     27.67% |          78      3.69%     31.36% |          83      3.93%     35.29% |          37      1.75%     37.04% |          45      2.13%     39.17% |          78      3.69%     42.86% |          71      3.36%     46.22% |          46      2.18%     48.39% |         103      4.87%     53.26% |          75      3.55%     56.81% |          83      3.93%     60.74% |          53      2.51%     63.25% |          92      4.35%     67.60% |          83      3.93%     71.52% |          79      3.74%     75.26% |          55      2.60%     77.86% |          56      2.65%     80.51% |          59      2.79%     83.30% |          70      3.31%     86.61% |          51      2.41%     89.03% |          51      2.41%     91.44% |          72      3.41%     94.84% |          49      2.32%     97.16% |          60      2.84%    100.00%
system.ruby.L2Cache_Controller.MT_IIB.Unblock::total         2114                      
system.ruby.L2Cache_Controller.MT_IB.WB_Data_clean |          31      1.47%      1.47% |          28      1.32%      2.79% |          64      3.03%      5.82% |          47      2.22%      8.04% |          52      2.46%     10.50% |          84      3.97%     14.47% |          88      4.16%     18.64% |          64      3.03%     21.67% |         127      6.01%     27.67% |          78      3.69%     31.36% |          83      3.93%     35.29% |          37      1.75%     37.04% |          45      2.13%     39.17% |          78      3.69%     42.86% |          71      3.36%     46.22% |          46      2.18%     48.39% |         103      4.87%     53.26% |          75      3.55%     56.81% |          83      3.93%     60.74% |          53      2.51%     63.25% |          92      4.35%     67.60% |          83      3.93%     71.52% |          79      3.74%     75.26% |          55      2.60%     77.86% |          56      2.65%     80.51% |          59      2.79%     83.30% |          70      3.31%     86.61% |          51      2.41%     89.03% |          51      2.41%     91.44% |          72      3.41%     94.84% |          49      2.32%     97.16% |          60      2.84%    100.00%
system.ruby.L2Cache_Controller.MT_IB.WB_Data_clean::total         2114                      
system.ruby.L2Cache_Controller.MT_SB.L1_PUTX |           1      4.55%      4.55% |           0      0.00%      4.55% |           2      9.09%     13.64% |           0      0.00%     13.64% |           0      0.00%     13.64% |           1      4.55%     18.18% |           1      4.55%     22.73% |           2      9.09%     31.82% |           1      4.55%     36.36% |           0      0.00%     36.36% |           0      0.00%     36.36% |           0      0.00%     36.36% |           0      0.00%     36.36% |           1      4.55%     40.91% |           2      9.09%     50.00% |           2      9.09%     59.09% |           2      9.09%     68.18% |           0      0.00%     68.18% |           0      0.00%     68.18% |           1      4.55%     72.73% |           0      0.00%     72.73% |           1      4.55%     77.27% |           2      9.09%     86.36% |           0      0.00%     86.36% |           0      0.00%     86.36% |           0      0.00%     86.36% |           1      4.55%     90.91% |           0      0.00%     90.91% |           0      0.00%     90.91% |           2      9.09%    100.00% |           0      0.00%    100.00% |           0      0.00%    100.00%
system.ruby.L2Cache_Controller.MT_SB.L1_PUTX::total           22                      
system.ruby.L2Cache_Controller.MT_SB.Unblock |        1812      3.21%      3.21% |        1805      3.20%      6.41% |        1754      3.11%      9.52% |        1728      3.06%     12.58% |        1754      3.11%     15.69% |        1725      3.06%     18.75% |        1711      3.03%     21.78% |        1761      3.12%     24.90% |        1758      3.12%     28.01% |        1773      3.14%     31.16% |        1738      3.08%     34.24% |        1799      3.19%     37.42% |        1819      3.22%     40.65% |        1781      3.16%     43.80% |        1766      3.13%     46.93% |        1792      3.18%     50.11% |        1786      3.16%     53.27% |        1815      3.22%     56.49% |        1748      3.10%     59.59% |        1774      3.14%     62.73% |        1783      3.16%     65.89% |        1786      3.16%     69.06% |        1765      3.13%     72.18% |        1705      3.02%     75.20% |        1804      3.20%     78.40% |        1808      3.20%     81.61% |        1744      3.09%     84.70% |        1716      3.04%     87.74% |        1756      3.11%     90.85% |        1717      3.04%     93.89% |        1752      3.10%     97.00% |        1695      3.00%    100.00%
system.ruby.L2Cache_Controller.MT_SB.Unblock::total        56430                      
system.ruby.SimicsNetworkPortInterface_Controller.MessageSend |      682933     19.84%     19.84% |     1721461     50.00%     69.84% |      120393      3.50%     73.33% |      135669      3.94%     77.27% |      115618      3.36%     80.63% |      118026      3.43%     84.06% |      189255      5.50%     89.56% |      130014      3.78%     93.33% |      116695      3.39%     96.72% |      112858      3.28%    100.00% |           0      0.00%    100.00% |           0      0.00%    100.00% |           0      0.00%    100.00% |           0      0.00%    100.00% |           0      0.00%    100.00% |           0      0.00%    100.00% |           0      0.00%    100.00% |           0      0.00%    100.00% |           0      0.00%    100.00% |           0      0.00%    100.00% |           0      0.00%    100.00% |           0      0.00%    100.00% |           0      0.00%    100.00% |           0      0.00%    100.00% |           0      0.00%    100.00% |           0      0.00%    100.00% |           0      0.00%    100.00% |           0      0.00%    100.00% |           0      0.00%    100.00% |           0      0.00%    100.00% |           0      0.00%    100.00% |           0      0.00%    100.00%
system.ruby.SimicsNetworkPortInterface_Controller.MessageSend::total      3442922                      
system.ruby.SimicsNetworkPortInterface_Controller.MessageRecv |      682933     19.84%     19.84% |     1721461     50.00%     69.84% |      120393      3.50%     73.33% |      135669      3.94%     77.27% |      115618      3.36%     80.63% |      118026      3.43%     84.06% |      189255      5.50%     89.56% |      130014      3.78%     93.33% |      116695      3.39%     96.72% |      112858      3.28%    100.00% |           0      0.00%    100.00% |           0      0.00%    100.00% |           0      0.00%    100.00% |           0      0.00%    100.00% |           0      0.00%    100.00% |           0      0.00%    100.00% |           0      0.00%    100.00% |           0      0.00%    100.00% |           0      0.00%    100.00% |           0      0.00%    100.00% |           0      0.00%    100.00% |           0      0.00%    100.00% |           0      0.00%    100.00% |           0      0.00%    100.00% |           0      0.00%    100.00% |           0      0.00%    100.00% |           0      0.00%    100.00% |           0      0.00%    100.00% |           0      0.00%    100.00% |           0      0.00%    100.00% |           0      0.00%    100.00% |           0      0.00%    100.00%
system.ruby.SimicsNetworkPortInterface_Controller.MessageRecv::total      3442922                      
system.ruby.SimicsNetworkPortInterface_Controller.A.MessageSend |      682933     19.84%     19.84% |     1721461     50.00%     69.84% |      120393      3.50%     73.33% |      135669      3.94%     77.27% |      115618      3.36%     80.63% |      118026      3.43%     84.06% |      189255      5.50%     89.56% |      130014      3.78%     93.33% |      116695      3.39%     96.72% |      112858      3.28%    100.00% |           0      0.00%    100.00% |           0      0.00%    100.00% |           0      0.00%    100.00% |           0      0.00%    100.00% |           0      0.00%    100.00% |           0      0.00%    100.00% |           0      0.00%    100.00% |           0      0.00%    100.00% |           0      0.00%    100.00% |           0      0.00%    100.00% |           0      0.00%    100.00% |           0      0.00%    100.00% |           0      0.00%    100.00% |           0      0.00%    100.00% |           0      0.00%    100.00% |           0      0.00%    100.00% |           0      0.00%    100.00% |           0      0.00%    100.00% |           0      0.00%    100.00% |           0      0.00%    100.00% |           0      0.00%    100.00% |           0      0.00%    100.00%
system.ruby.SimicsNetworkPortInterface_Controller.A.MessageSend::total      3442922                      
system.ruby.SimicsNetworkPortInterface_Controller.A.MessageRecv |      682933     19.84%     19.84% |     1721461     50.00%     69.84% |      120393      3.50%     73.33% |      135669      3.94%     77.27% |      115618      3.36%     80.63% |      118026      3.43%     84.06% |      189255      5.50%     89.56% |      130014      3.78%     93.33% |      116695      3.39%     96.72% |      112858      3.28%    100.00% |           0      0.00%    100.00% |           0      0.00%    100.00% |           0      0.00%    100.00% |           0      0.00%    100.00% |           0      0.00%    100.00% |           0      0.00%    100.00% |           0      0.00%    100.00% |           0      0.00%    100.00% |           0      0.00%    100.00% |           0      0.00%    100.00% |           0      0.00%    100.00% |           0      0.00%    100.00% |           0      0.00%    100.00% |           0      0.00%    100.00% |           0      0.00%    100.00% |           0      0.00%    100.00% |           0      0.00%    100.00% |           0      0.00%    100.00% |           0      0.00%    100.00% |           0      0.00%    100.00% |           0      0.00%    100.00% |           0      0.00%    100.00%
system.ruby.SimicsNetworkPortInterface_Controller.A.MessageRecv::total      3442922                      
system.switch_cpus.kern.inst.arm                    0                       # number of arm instructions executed
system.switch_cpus.kern.inst.quiesce                0                       # number of quiesce instructions executed

---------- End Simulation Statistics   ----------
