
---------- Begin Simulation Statistics ----------
sim_seconds                                  0.038826                       # Number of seconds simulated
sim_ticks                                 38825851000                       # Number of ticks simulated
final_tick                               5214993929500                       # Number of ticks from beginning of simulation (restored from checkpoints and never reset)
sim_freq                                 1000000000000                       # Frequency of simulated ticks
host_inst_rate                                  23465                       # Simulator instruction rate (inst/s)
host_op_rate                                    41318                       # Simulator op (including micro ops) rate (op/s)
host_tick_rate                               50136494                       # Simulator tick rate (ticks/s)
host_mem_usage                                3227104                       # Number of bytes of host memory used
host_seconds                                   774.40                       # Real time elapsed on the host
sim_insts                                    18171612                       # Number of instructions simulated
sim_ops                                      31996444                       # Number of ops (including micro ops) simulated
system.voltage_domain.voltage                       1                       # Voltage in Volts
system.clk_domain.clock                           500                       # Clock period in ticks
system.mem_ctrls0.bytes_read::ruby.dir_cntrl0      4688768                       # Number of bytes read from this memory
system.mem_ctrls0.bytes_read::total           4688768                       # Number of bytes read from this memory
system.mem_ctrls0.bytes_written::ruby.dir_cntrl0      2862144                       # Number of bytes written to this memory
system.mem_ctrls0.bytes_written::total        2862144                       # Number of bytes written to this memory
system.mem_ctrls0.num_reads::ruby.dir_cntrl0        73262                       # Number of read requests responded to by this memory
system.mem_ctrls0.num_reads::total              73262                       # Number of read requests responded to by this memory
system.mem_ctrls0.num_writes::ruby.dir_cntrl0        44721                       # Number of write requests responded to by this memory
system.mem_ctrls0.num_writes::total             44721                       # Number of write requests responded to by this memory
system.mem_ctrls0.bw_read::ruby.dir_cntrl0    120764075                       # Total read bandwidth from this memory (bytes/s)
system.mem_ctrls0.bw_read::total            120764075                       # Total read bandwidth from this memory (bytes/s)
system.mem_ctrls0.bw_write::ruby.dir_cntrl0     73717483                       # Write bandwidth from this memory (bytes/s)
system.mem_ctrls0.bw_write::total            73717483                       # Write bandwidth from this memory (bytes/s)
system.mem_ctrls0.bw_total::ruby.dir_cntrl0    194481558                       # Total bandwidth to/from this memory (bytes/s)
system.mem_ctrls0.bw_total::total           194481558                       # Total bandwidth to/from this memory (bytes/s)
system.mem_ctrls0.readReqs                      73262                       # Number of read requests accepted
system.mem_ctrls0.writeReqs                     44721                       # Number of write requests accepted
system.mem_ctrls0.readBursts                    73262                       # Number of DRAM read bursts, including those serviced by the write queue
system.mem_ctrls0.writeBursts                   44721                       # Number of DRAM write bursts, including those merged in the write queue
system.mem_ctrls0.bytesReadDRAM               4687936                       # Total number of bytes read from DRAM
system.mem_ctrls0.bytesReadWrQ                    832                       # Total number of bytes read from write queue
system.mem_ctrls0.bytesWritten                2862016                       # Total number of bytes written to DRAM
system.mem_ctrls0.bytesReadSys                4688768                       # Total read bytes from the system interface side
system.mem_ctrls0.bytesWrittenSys             2862144                       # Total written bytes from the system interface side
system.mem_ctrls0.servicedByWrQ                    13                       # Number of DRAM read bursts serviced by the write queue
system.mem_ctrls0.mergedWrBursts                    0                       # Number of DRAM write bursts merged with an existing one
system.mem_ctrls0.neitherReadNorWriteReqs            0                       # Number of requests that are neither read nor write
system.mem_ctrls0.perBankRdBursts::0             4426                       # Per bank write bursts
system.mem_ctrls0.perBankRdBursts::1             4891                       # Per bank write bursts
system.mem_ctrls0.perBankRdBursts::2             4541                       # Per bank write bursts
system.mem_ctrls0.perBankRdBursts::3             4886                       # Per bank write bursts
system.mem_ctrls0.perBankRdBursts::4             4634                       # Per bank write bursts
system.mem_ctrls0.perBankRdBursts::5             4726                       # Per bank write bursts
system.mem_ctrls0.perBankRdBursts::6             4552                       # Per bank write bursts
system.mem_ctrls0.perBankRdBursts::7             4523                       # Per bank write bursts
system.mem_ctrls0.perBankRdBursts::8             4505                       # Per bank write bursts
system.mem_ctrls0.perBankRdBursts::9             4793                       # Per bank write bursts
system.mem_ctrls0.perBankRdBursts::10            4517                       # Per bank write bursts
system.mem_ctrls0.perBankRdBursts::11            4732                       # Per bank write bursts
system.mem_ctrls0.perBankRdBursts::12            4351                       # Per bank write bursts
system.mem_ctrls0.perBankRdBursts::13            4197                       # Per bank write bursts
system.mem_ctrls0.perBankRdBursts::14            4469                       # Per bank write bursts
system.mem_ctrls0.perBankRdBursts::15            4506                       # Per bank write bursts
system.mem_ctrls0.perBankWrBursts::0             2818                       # Per bank write bursts
system.mem_ctrls0.perBankWrBursts::1             2810                       # Per bank write bursts
system.mem_ctrls0.perBankWrBursts::2             2793                       # Per bank write bursts
system.mem_ctrls0.perBankWrBursts::3             2882                       # Per bank write bursts
system.mem_ctrls0.perBankWrBursts::4             2801                       # Per bank write bursts
system.mem_ctrls0.perBankWrBursts::5             2939                       # Per bank write bursts
system.mem_ctrls0.perBankWrBursts::6             2769                       # Per bank write bursts
system.mem_ctrls0.perBankWrBursts::7             2846                       # Per bank write bursts
system.mem_ctrls0.perBankWrBursts::8             2739                       # Per bank write bursts
system.mem_ctrls0.perBankWrBursts::9             2919                       # Per bank write bursts
system.mem_ctrls0.perBankWrBursts::10            2766                       # Per bank write bursts
system.mem_ctrls0.perBankWrBursts::11            2698                       # Per bank write bursts
system.mem_ctrls0.perBankWrBursts::12            2633                       # Per bank write bursts
system.mem_ctrls0.perBankWrBursts::13            2669                       # Per bank write bursts
system.mem_ctrls0.perBankWrBursts::14            2876                       # Per bank write bursts
system.mem_ctrls0.perBankWrBursts::15            2761                       # Per bank write bursts
system.mem_ctrls0.numRdRetry                      372                       # Number of times read queue was full causing retry
system.mem_ctrls0.numWrRetry                     2228                       # Number of times write queue was full causing retry
system.mem_ctrls0.totGap                  38825338500                       # Total gap between requests
system.mem_ctrls0.readPktSize::0                    0                       # Read request sizes (log2)
system.mem_ctrls0.readPktSize::1                    0                       # Read request sizes (log2)
system.mem_ctrls0.readPktSize::2                    0                       # Read request sizes (log2)
system.mem_ctrls0.readPktSize::3                    0                       # Read request sizes (log2)
system.mem_ctrls0.readPktSize::4                    0                       # Read request sizes (log2)
system.mem_ctrls0.readPktSize::5                    0                       # Read request sizes (log2)
system.mem_ctrls0.readPktSize::6                73262                       # Read request sizes (log2)
system.mem_ctrls0.writePktSize::0                   0                       # Write request sizes (log2)
system.mem_ctrls0.writePktSize::1                   0                       # Write request sizes (log2)
system.mem_ctrls0.writePktSize::2                   0                       # Write request sizes (log2)
system.mem_ctrls0.writePktSize::3                   0                       # Write request sizes (log2)
system.mem_ctrls0.writePktSize::4                   0                       # Write request sizes (log2)
system.mem_ctrls0.writePktSize::5                   0                       # Write request sizes (log2)
system.mem_ctrls0.writePktSize::6               44721                       # Write request sizes (log2)
system.mem_ctrls0.rdQLenPdf::0                  45658                       # What read queue length does an incoming req see
system.mem_ctrls0.rdQLenPdf::1                   4314                       # What read queue length does an incoming req see
system.mem_ctrls0.rdQLenPdf::2                   3534                       # What read queue length does an incoming req see
system.mem_ctrls0.rdQLenPdf::3                   2876                       # What read queue length does an incoming req see
system.mem_ctrls0.rdQLenPdf::4                   2342                       # What read queue length does an incoming req see
system.mem_ctrls0.rdQLenPdf::5                   1978                       # What read queue length does an incoming req see
system.mem_ctrls0.rdQLenPdf::6                   1570                       # What read queue length does an incoming req see
system.mem_ctrls0.rdQLenPdf::7                   1344                       # What read queue length does an incoming req see
system.mem_ctrls0.rdQLenPdf::8                   1169                       # What read queue length does an incoming req see
system.mem_ctrls0.rdQLenPdf::9                    998                       # What read queue length does an incoming req see
system.mem_ctrls0.rdQLenPdf::10                   838                       # What read queue length does an incoming req see
system.mem_ctrls0.rdQLenPdf::11                   771                       # What read queue length does an incoming req see
system.mem_ctrls0.rdQLenPdf::12                   668                       # What read queue length does an incoming req see
system.mem_ctrls0.rdQLenPdf::13                   622                       # What read queue length does an incoming req see
system.mem_ctrls0.rdQLenPdf::14                   490                       # What read queue length does an incoming req see
system.mem_ctrls0.rdQLenPdf::15                   426                       # What read queue length does an incoming req see
system.mem_ctrls0.rdQLenPdf::16                   385                       # What read queue length does an incoming req see
system.mem_ctrls0.rdQLenPdf::17                   370                       # What read queue length does an incoming req see
system.mem_ctrls0.rdQLenPdf::18                   311                       # What read queue length does an incoming req see
system.mem_ctrls0.rdQLenPdf::19                   271                       # What read queue length does an incoming req see
system.mem_ctrls0.rdQLenPdf::20                   247                       # What read queue length does an incoming req see
system.mem_ctrls0.rdQLenPdf::21                   212                       # What read queue length does an incoming req see
system.mem_ctrls0.rdQLenPdf::22                   217                       # What read queue length does an incoming req see
system.mem_ctrls0.rdQLenPdf::23                   197                       # What read queue length does an incoming req see
system.mem_ctrls0.rdQLenPdf::24                   174                       # What read queue length does an incoming req see
system.mem_ctrls0.rdQLenPdf::25                   156                       # What read queue length does an incoming req see
system.mem_ctrls0.rdQLenPdf::26                   138                       # What read queue length does an incoming req see
system.mem_ctrls0.rdQLenPdf::27                   131                       # What read queue length does an incoming req see
system.mem_ctrls0.rdQLenPdf::28                   124                       # What read queue length does an incoming req see
system.mem_ctrls0.rdQLenPdf::29                   122                       # What read queue length does an incoming req see
system.mem_ctrls0.rdQLenPdf::30                   111                       # What read queue length does an incoming req see
system.mem_ctrls0.rdQLenPdf::31                   485                       # What read queue length does an incoming req see
system.mem_ctrls0.wrQLenPdf::0                   7715                       # What write queue length does an incoming req see
system.mem_ctrls0.wrQLenPdf::1                   7995                       # What write queue length does an incoming req see
system.mem_ctrls0.wrQLenPdf::2                   8153                       # What write queue length does an incoming req see
system.mem_ctrls0.wrQLenPdf::3                   8238                       # What write queue length does an incoming req see
system.mem_ctrls0.wrQLenPdf::4                   8329                       # What write queue length does an incoming req see
system.mem_ctrls0.wrQLenPdf::5                    783                       # What write queue length does an incoming req see
system.mem_ctrls0.wrQLenPdf::6                    684                       # What write queue length does an incoming req see
system.mem_ctrls0.wrQLenPdf::7                   2824                       # What write queue length does an incoming req see
system.mem_ctrls0.bytesPerActivate::samples        32350                       # Bytes accessed per row activation
system.mem_ctrls0.bytesPerActivate::mean   233.353694                       # Bytes accessed per row activation
system.mem_ctrls0.bytesPerActivate::gmean   157.484802                       # Bytes accessed per row activation
system.mem_ctrls0.bytesPerActivate::stdev   234.599255                       # Bytes accessed per row activation
system.mem_ctrls0.bytesPerActivate::0-127        12563     38.83%     38.83% # Bytes accessed per row activation
system.mem_ctrls0.bytesPerActivate::128-255         7260     22.44%     61.28% # Bytes accessed per row activation
system.mem_ctrls0.bytesPerActivate::256-383         8081     24.98%     86.26% # Bytes accessed per row activation
system.mem_ctrls0.bytesPerActivate::384-511         1048      3.24%     89.50% # Bytes accessed per row activation
system.mem_ctrls0.bytesPerActivate::512-639          740      2.29%     91.78% # Bytes accessed per row activation
system.mem_ctrls0.bytesPerActivate::640-767          570      1.76%     93.55% # Bytes accessed per row activation
system.mem_ctrls0.bytesPerActivate::768-895          452      1.40%     94.94% # Bytes accessed per row activation
system.mem_ctrls0.bytesPerActivate::896-1023          415      1.28%     96.23% # Bytes accessed per row activation
system.mem_ctrls0.bytesPerActivate::1024-1151         1221      3.77%    100.00% # Bytes accessed per row activation
system.mem_ctrls0.bytesPerActivate::total        32350                       # Bytes accessed per row activation
system.mem_ctrls0.rdPerTurnAround::samples         7951                       # Reads before turning the bus around for writes
system.mem_ctrls0.rdPerTurnAround::mean      9.210414                       # Reads before turning the bus around for writes
system.mem_ctrls0.rdPerTurnAround::stdev    46.045415                       # Reads before turning the bus around for writes
system.mem_ctrls0.rdPerTurnAround::0-127         7944     99.91%     99.91% # Reads before turning the bus around for writes
system.mem_ctrls0.rdPerTurnAround::128-255            6      0.08%     99.99% # Reads before turning the bus around for writes
system.mem_ctrls0.rdPerTurnAround::3968-4095            1      0.01%    100.00% # Reads before turning the bus around for writes
system.mem_ctrls0.rdPerTurnAround::total         7951                       # Reads before turning the bus around for writes
system.mem_ctrls0.wrPerTurnAround::samples         7951                       # Writes before turning the bus around for reads
system.mem_ctrls0.wrPerTurnAround::mean      5.624324                       # Writes before turning the bus around for reads
system.mem_ctrls0.wrPerTurnAround::gmean     5.391446                       # Writes before turning the bus around for reads
system.mem_ctrls0.wrPerTurnAround::stdev     2.234798                       # Writes before turning the bus around for reads
system.mem_ctrls0.wrPerTurnAround::4-7           7427     93.41%     93.41% # Writes before turning the bus around for reads
system.mem_ctrls0.wrPerTurnAround::8-11           155      1.95%     95.36% # Writes before turning the bus around for reads
system.mem_ctrls0.wrPerTurnAround::12-15          107      1.35%     96.70% # Writes before turning the bus around for reads
system.mem_ctrls0.wrPerTurnAround::16-19          262      3.30%    100.00% # Writes before turning the bus around for reads
system.mem_ctrls0.wrPerTurnAround::total         7951                       # Writes before turning the bus around for reads
system.mem_ctrls0.totQLat                  3422530174                       # Total ticks spent queuing
system.mem_ctrls0.totMemAccLat             4795948924                       # Total ticks spent from burst creation until serviced by the DRAM
system.mem_ctrls0.totBusLat                 366245000                       # Total ticks spent in databus transfers
system.mem_ctrls0.avgQLat                    46724.60                       # Average queueing delay per DRAM burst
system.mem_ctrls0.avgBusLat                   5000.00                       # Average bus latency per DRAM burst
system.mem_ctrls0.avgMemAccLat               65474.60                       # Average memory access latency per DRAM burst
system.mem_ctrls0.avgRdBW                      120.74                       # Average DRAM read bandwidth in MiByte/s
system.mem_ctrls0.avgWrBW                       73.71                       # Average achieved write bandwidth in MiByte/s
system.mem_ctrls0.avgRdBWSys                   120.76                       # Average system read bandwidth in MiByte/s
system.mem_ctrls0.avgWrBWSys                    73.72                       # Average system write bandwidth in MiByte/s
system.mem_ctrls0.peakBW                     12800.00                       # Theoretical peak bandwidth in MiByte/s
system.mem_ctrls0.busUtil                        1.52                       # Data bus utilization in percentage
system.mem_ctrls0.busUtilRead                    0.94                       # Data bus utilization in percentage for reads
system.mem_ctrls0.busUtilWrite                   0.58                       # Data bus utilization in percentage for writes
system.mem_ctrls0.avgRdQLen                      1.12                       # Average read queue length when enqueuing
system.mem_ctrls0.avgWrQLen                      2.87                       # Average write queue length when enqueuing
system.mem_ctrls0.readRowHits                   56197                       # Number of row buffer hits during reads
system.mem_ctrls0.writeRowHits                  29412                       # Number of row buffer hits during writes
system.mem_ctrls0.readRowHitRate                76.72                       # Row buffer hit rate for reads
system.mem_ctrls0.writeRowHitRate               65.77                       # Row buffer hit rate for writes
system.mem_ctrls0.avgGap                    329075.70                       # Average gap between requests
system.mem_ctrls0.pageHitRate                   72.57                       # Row buffer hit rate, read and write combined
system.mem_ctrls0.memoryStateTime::IDLE   10429338000                       # Time in different power states
system.mem_ctrls0.memoryStateTime::REF     1296360000                       # Time in different power states
system.mem_ctrls0.memoryStateTime::PRE_PDN            0                       # Time in different power states
system.mem_ctrls0.memoryStateTime::ACT    27096818250                       # Time in different power states
system.mem_ctrls0.memoryStateTime::ACT_PDN            0                       # Time in different power states
system.mem_ctrls0.actEnergy::0              126312480                       # Energy for activate commands per rank (pJ)
system.mem_ctrls0.actEnergy::1              118208160                       # Energy for activate commands per rank (pJ)
system.mem_ctrls0.preEnergy::0               68920500                       # Energy for precharge commands per rank (pJ)
system.mem_ctrls0.preEnergy::1               64498500                       # Energy for precharge commands per rank (pJ)
system.mem_ctrls0.readEnergy::0             289933800                       # Energy for read commands per rank (pJ)
system.mem_ctrls0.readEnergy::1             281244600                       # Energy for read commands per rank (pJ)
system.mem_ctrls0.writeEnergy::0            146791440                       # Energy for write commands per rank (pJ)
system.mem_ctrls0.writeEnergy::1            142955280                       # Energy for write commands per rank (pJ)
system.mem_ctrls0.refreshEnergy::0         2535680160                       # Energy for refresh commands per rank (pJ)
system.mem_ctrls0.refreshEnergy::1         2535680160                       # Energy for refresh commands per rank (pJ)
system.mem_ctrls0.actBackEnergy::0        14170662270                       # Energy for active background per rank (pJ)
system.mem_ctrls0.actBackEnergy::1        13806495540                       # Energy for active background per rank (pJ)
system.mem_ctrls0.preBackEnergy::0        10863096000                       # Energy for precharge background per rank (pJ)
system.mem_ctrls0.preBackEnergy::1        11182540500                       # Energy for precharge background per rank (pJ)
system.mem_ctrls0.totalEnergy::0          28201396650                       # Total energy per rank (pJ)
system.mem_ctrls0.totalEnergy::1          28131622740                       # Total energy per rank (pJ)
system.mem_ctrls0.averagePower::0          726.418825                       # Core power per rank (mW)
system.mem_ctrls0.averagePower::1          724.621571                       # Core power per rank (mW)
system.mem_ctrls1.bytes_read::ruby.dir_cntrl1      4564288                       # Number of bytes read from this memory
system.mem_ctrls1.bytes_read::total           4564288                       # Number of bytes read from this memory
system.mem_ctrls1.bytes_written::ruby.dir_cntrl1      2746624                       # Number of bytes written to this memory
system.mem_ctrls1.bytes_written::total        2746624                       # Number of bytes written to this memory
system.mem_ctrls1.num_reads::ruby.dir_cntrl1        71317                       # Number of read requests responded to by this memory
system.mem_ctrls1.num_reads::total              71317                       # Number of read requests responded to by this memory
system.mem_ctrls1.num_writes::ruby.dir_cntrl1        42916                       # Number of write requests responded to by this memory
system.mem_ctrls1.num_writes::total             42916                       # Number of write requests responded to by this memory
system.mem_ctrls1.bw_read::ruby.dir_cntrl1    117557964                       # Total read bandwidth from this memory (bytes/s)
system.mem_ctrls1.bw_read::total            117557964                       # Total read bandwidth from this memory (bytes/s)
system.mem_ctrls1.bw_write::ruby.dir_cntrl1     70742145                       # Write bandwidth from this memory (bytes/s)
system.mem_ctrls1.bw_write::total            70742145                       # Write bandwidth from this memory (bytes/s)
system.mem_ctrls1.bw_total::ruby.dir_cntrl1    188300110                       # Total bandwidth to/from this memory (bytes/s)
system.mem_ctrls1.bw_total::total           188300110                       # Total bandwidth to/from this memory (bytes/s)
system.mem_ctrls1.readReqs                      71317                       # Number of read requests accepted
system.mem_ctrls1.writeReqs                     42916                       # Number of write requests accepted
system.mem_ctrls1.readBursts                    71317                       # Number of DRAM read bursts, including those serviced by the write queue
system.mem_ctrls1.writeBursts                   42916                       # Number of DRAM write bursts, including those merged in the write queue
system.mem_ctrls1.bytesReadDRAM               4563264                       # Total number of bytes read from DRAM
system.mem_ctrls1.bytesReadWrQ                   1024                       # Total number of bytes read from write queue
system.mem_ctrls1.bytesWritten                2746432                       # Total number of bytes written to DRAM
system.mem_ctrls1.bytesReadSys                4564288                       # Total read bytes from the system interface side
system.mem_ctrls1.bytesWrittenSys             2746624                       # Total written bytes from the system interface side
system.mem_ctrls1.servicedByWrQ                    16                       # Number of DRAM read bursts serviced by the write queue
system.mem_ctrls1.mergedWrBursts                    0                       # Number of DRAM write bursts merged with an existing one
system.mem_ctrls1.neitherReadNorWriteReqs            0                       # Number of requests that are neither read nor write
system.mem_ctrls1.perBankRdBursts::0             4309                       # Per bank write bursts
system.mem_ctrls1.perBankRdBursts::1             4752                       # Per bank write bursts
system.mem_ctrls1.perBankRdBursts::2             4420                       # Per bank write bursts
system.mem_ctrls1.perBankRdBursts::3             4767                       # Per bank write bursts
system.mem_ctrls1.perBankRdBursts::4             4524                       # Per bank write bursts
system.mem_ctrls1.perBankRdBursts::5             4631                       # Per bank write bursts
system.mem_ctrls1.perBankRdBursts::6             4426                       # Per bank write bursts
system.mem_ctrls1.perBankRdBursts::7             4426                       # Per bank write bursts
system.mem_ctrls1.perBankRdBursts::8             4376                       # Per bank write bursts
system.mem_ctrls1.perBankRdBursts::9             4671                       # Per bank write bursts
system.mem_ctrls1.perBankRdBursts::10            4400                       # Per bank write bursts
system.mem_ctrls1.perBankRdBursts::11            4614                       # Per bank write bursts
system.mem_ctrls1.perBankRdBursts::12            4228                       # Per bank write bursts
system.mem_ctrls1.perBankRdBursts::13            4084                       # Per bank write bursts
system.mem_ctrls1.perBankRdBursts::14            4274                       # Per bank write bursts
system.mem_ctrls1.perBankRdBursts::15            4399                       # Per bank write bursts
system.mem_ctrls1.perBankWrBursts::0             2710                       # Per bank write bursts
system.mem_ctrls1.perBankWrBursts::1             2714                       # Per bank write bursts
system.mem_ctrls1.perBankWrBursts::2             2691                       # Per bank write bursts
system.mem_ctrls1.perBankWrBursts::3             2773                       # Per bank write bursts
system.mem_ctrls1.perBankWrBursts::4             2699                       # Per bank write bursts
system.mem_ctrls1.perBankWrBursts::5             2830                       # Per bank write bursts
system.mem_ctrls1.perBankWrBursts::6             2643                       # Per bank write bursts
system.mem_ctrls1.perBankWrBursts::7             2732                       # Per bank write bursts
system.mem_ctrls1.perBankWrBursts::8             2629                       # Per bank write bursts
system.mem_ctrls1.perBankWrBursts::9             2805                       # Per bank write bursts
system.mem_ctrls1.perBankWrBursts::10            2661                       # Per bank write bursts
system.mem_ctrls1.perBankWrBursts::11            2586                       # Per bank write bursts
system.mem_ctrls1.perBankWrBursts::12            2527                       # Per bank write bursts
system.mem_ctrls1.perBankWrBursts::13            2553                       # Per bank write bursts
system.mem_ctrls1.perBankWrBursts::14            2708                       # Per bank write bursts
system.mem_ctrls1.perBankWrBursts::15            2652                       # Per bank write bursts
system.mem_ctrls1.numRdRetry                      353                       # Number of times read queue was full causing retry
system.mem_ctrls1.numWrRetry                     2129                       # Number of times write queue was full causing retry
system.mem_ctrls1.totGap                  38825086500                       # Total gap between requests
system.mem_ctrls1.readPktSize::0                    0                       # Read request sizes (log2)
system.mem_ctrls1.readPktSize::1                    0                       # Read request sizes (log2)
system.mem_ctrls1.readPktSize::2                    0                       # Read request sizes (log2)
system.mem_ctrls1.readPktSize::3                    0                       # Read request sizes (log2)
system.mem_ctrls1.readPktSize::4                    0                       # Read request sizes (log2)
system.mem_ctrls1.readPktSize::5                    0                       # Read request sizes (log2)
system.mem_ctrls1.readPktSize::6                71317                       # Read request sizes (log2)
system.mem_ctrls1.writePktSize::0                   0                       # Write request sizes (log2)
system.mem_ctrls1.writePktSize::1                   0                       # Write request sizes (log2)
system.mem_ctrls1.writePktSize::2                   0                       # Write request sizes (log2)
system.mem_ctrls1.writePktSize::3                   0                       # Write request sizes (log2)
system.mem_ctrls1.writePktSize::4                   0                       # Write request sizes (log2)
system.mem_ctrls1.writePktSize::5                   0                       # Write request sizes (log2)
system.mem_ctrls1.writePktSize::6               42916                       # Write request sizes (log2)
system.mem_ctrls1.rdQLenPdf::0                  44835                       # What read queue length does an incoming req see
system.mem_ctrls1.rdQLenPdf::1                   3718                       # What read queue length does an incoming req see
system.mem_ctrls1.rdQLenPdf::2                   3225                       # What read queue length does an incoming req see
system.mem_ctrls1.rdQLenPdf::3                   2733                       # What read queue length does an incoming req see
system.mem_ctrls1.rdQLenPdf::4                   2319                       # What read queue length does an incoming req see
system.mem_ctrls1.rdQLenPdf::5                   2014                       # What read queue length does an incoming req see
system.mem_ctrls1.rdQLenPdf::6                   1682                       # What read queue length does an incoming req see
system.mem_ctrls1.rdQLenPdf::7                   1470                       # What read queue length does an incoming req see
system.mem_ctrls1.rdQLenPdf::8                   1185                       # What read queue length does an incoming req see
system.mem_ctrls1.rdQLenPdf::9                   1012                       # What read queue length does an incoming req see
system.mem_ctrls1.rdQLenPdf::10                   927                       # What read queue length does an incoming req see
system.mem_ctrls1.rdQLenPdf::11                   713                       # What read queue length does an incoming req see
system.mem_ctrls1.rdQLenPdf::12                   614                       # What read queue length does an incoming req see
system.mem_ctrls1.rdQLenPdf::13                   528                       # What read queue length does an incoming req see
system.mem_ctrls1.rdQLenPdf::14                   462                       # What read queue length does an incoming req see
system.mem_ctrls1.rdQLenPdf::15                   413                       # What read queue length does an incoming req see
system.mem_ctrls1.rdQLenPdf::16                   391                       # What read queue length does an incoming req see
system.mem_ctrls1.rdQLenPdf::17                   350                       # What read queue length does an incoming req see
system.mem_ctrls1.rdQLenPdf::18                   280                       # What read queue length does an incoming req see
system.mem_ctrls1.rdQLenPdf::19                   268                       # What read queue length does an incoming req see
system.mem_ctrls1.rdQLenPdf::20                   233                       # What read queue length does an incoming req see
system.mem_ctrls1.rdQLenPdf::21                   188                       # What read queue length does an incoming req see
system.mem_ctrls1.rdQLenPdf::22                   180                       # What read queue length does an incoming req see
system.mem_ctrls1.rdQLenPdf::23                   169                       # What read queue length does an incoming req see
system.mem_ctrls1.rdQLenPdf::24                   158                       # What read queue length does an incoming req see
system.mem_ctrls1.rdQLenPdf::25                   152                       # What read queue length does an incoming req see
system.mem_ctrls1.rdQLenPdf::26                   136                       # What read queue length does an incoming req see
system.mem_ctrls1.rdQLenPdf::27                   135                       # What read queue length does an incoming req see
system.mem_ctrls1.rdQLenPdf::28                   130                       # What read queue length does an incoming req see
system.mem_ctrls1.rdQLenPdf::29                   119                       # What read queue length does an incoming req see
system.mem_ctrls1.rdQLenPdf::30                    97                       # What read queue length does an incoming req see
system.mem_ctrls1.rdQLenPdf::31                   465                       # What read queue length does an incoming req see
system.mem_ctrls1.wrQLenPdf::0                   7414                       # What write queue length does an incoming req see
system.mem_ctrls1.wrQLenPdf::1                   7600                       # What write queue length does an incoming req see
system.mem_ctrls1.wrQLenPdf::2                   7767                       # What write queue length does an incoming req see
system.mem_ctrls1.wrQLenPdf::3                   7889                       # What write queue length does an incoming req see
system.mem_ctrls1.wrQLenPdf::4                   7985                       # What write queue length does an incoming req see
system.mem_ctrls1.wrQLenPdf::5                    736                       # What write queue length does an incoming req see
system.mem_ctrls1.wrQLenPdf::6                    719                       # What write queue length does an incoming req see
system.mem_ctrls1.wrQLenPdf::7                   2806                       # What write queue length does an incoming req see
system.mem_ctrls1.bytesPerActivate::samples        28588                       # Bytes accessed per row activation
system.mem_ctrls1.bytesPerActivate::mean   255.664195                       # Bytes accessed per row activation
system.mem_ctrls1.bytesPerActivate::gmean   175.842442                       # Bytes accessed per row activation
system.mem_ctrls1.bytesPerActivate::stdev   241.393706                       # Bytes accessed per row activation
system.mem_ctrls1.bytesPerActivate::0-127         9282     32.47%     32.47% # Bytes accessed per row activation
system.mem_ctrls1.bytesPerActivate::128-255         6674     23.35%     55.81% # Bytes accessed per row activation
system.mem_ctrls1.bytesPerActivate::256-383         7977     27.90%     83.72% # Bytes accessed per row activation
system.mem_ctrls1.bytesPerActivate::384-511         1184      4.14%     87.86% # Bytes accessed per row activation
system.mem_ctrls1.bytesPerActivate::512-639          832      2.91%     90.77% # Bytes accessed per row activation
system.mem_ctrls1.bytesPerActivate::640-767          557      1.95%     92.72% # Bytes accessed per row activation
system.mem_ctrls1.bytesPerActivate::768-895          447      1.56%     94.28% # Bytes accessed per row activation
system.mem_ctrls1.bytesPerActivate::896-1023          480      1.68%     95.96% # Bytes accessed per row activation
system.mem_ctrls1.bytesPerActivate::1024-1151         1155      4.04%    100.00% # Bytes accessed per row activation
system.mem_ctrls1.bytesPerActivate::total        28588                       # Bytes accessed per row activation
system.mem_ctrls1.rdPerTurnAround::samples         7637                       # Reads before turning the bus around for writes
system.mem_ctrls1.rdPerTurnAround::mean      9.331413                       # Reads before turning the bus around for writes
system.mem_ctrls1.rdPerTurnAround::stdev    37.413267                       # Reads before turning the bus around for writes
system.mem_ctrls1.rdPerTurnAround::0-127         7629     99.90%     99.90% # Reads before turning the bus around for writes
system.mem_ctrls1.rdPerTurnAround::128-255            6      0.08%     99.97% # Reads before turning the bus around for writes
system.mem_ctrls1.rdPerTurnAround::1152-1279            1      0.01%     99.99% # Reads before turning the bus around for writes
system.mem_ctrls1.rdPerTurnAround::2816-2943            1      0.01%    100.00% # Reads before turning the bus around for writes
system.mem_ctrls1.rdPerTurnAround::total         7637                       # Reads before turning the bus around for writes
system.mem_ctrls1.wrPerTurnAround::samples         7637                       # Writes before turning the bus around for reads
system.mem_ctrls1.wrPerTurnAround::mean      5.619091                       # Writes before turning the bus around for reads
system.mem_ctrls1.wrPerTurnAround::gmean     5.385866                       # Writes before turning the bus around for reads
system.mem_ctrls1.wrPerTurnAround::stdev     2.231464                       # Writes before turning the bus around for reads
system.mem_ctrls1.wrPerTurnAround::4-7           7117     93.19%     93.19% # Writes before turning the bus around for reads
system.mem_ctrls1.wrPerTurnAround::8-11           164      2.15%     95.34% # Writes before turning the bus around for reads
system.mem_ctrls1.wrPerTurnAround::12-15          112      1.47%     96.81% # Writes before turning the bus around for reads
system.mem_ctrls1.wrPerTurnAround::16-19          244      3.19%    100.00% # Writes before turning the bus around for reads
system.mem_ctrls1.wrPerTurnAround::total         7637                       # Writes before turning the bus around for reads
system.mem_ctrls1.totQLat                  3088480603                       # Total ticks spent queuing
system.mem_ctrls1.totMemAccLat             4425374353                       # Total ticks spent from burst creation until serviced by the DRAM
system.mem_ctrls1.totBusLat                 356505000                       # Total ticks spent in databus transfers
system.mem_ctrls1.avgQLat                    43316.09                       # Average queueing delay per DRAM burst
system.mem_ctrls1.avgBusLat                   5000.00                       # Average bus latency per DRAM burst
system.mem_ctrls1.avgMemAccLat               62066.09                       # Average memory access latency per DRAM burst
system.mem_ctrls1.avgRdBW                      117.53                       # Average DRAM read bandwidth in MiByte/s
system.mem_ctrls1.avgWrBW                       70.74                       # Average achieved write bandwidth in MiByte/s
system.mem_ctrls1.avgRdBWSys                   117.56                       # Average system read bandwidth in MiByte/s
system.mem_ctrls1.avgWrBWSys                    70.74                       # Average system write bandwidth in MiByte/s
system.mem_ctrls1.peakBW                     12800.00                       # Theoretical peak bandwidth in MiByte/s
system.mem_ctrls1.busUtil                        1.47                       # Data bus utilization in percentage
system.mem_ctrls1.busUtilRead                    0.92                       # Data bus utilization in percentage for reads
system.mem_ctrls1.busUtilWrite                   0.55                       # Data bus utilization in percentage for writes
system.mem_ctrls1.avgRdQLen                      1.11                       # Average read queue length when enqueuing
system.mem_ctrls1.avgWrQLen                      2.86                       # Average write queue length when enqueuing
system.mem_ctrls1.readRowHits                   55790                       # Number of row buffer hits during reads
system.mem_ctrls1.writeRowHits                  29832                       # Number of row buffer hits during writes
system.mem_ctrls1.readRowHitRate                78.25                       # Row buffer hit rate for reads
system.mem_ctrls1.writeRowHitRate               69.51                       # Row buffer hit rate for writes
system.mem_ctrls1.avgGap                    339876.27                       # Average gap between requests
system.mem_ctrls1.pageHitRate                   74.96                       # Row buffer hit rate, read and write combined
system.mem_ctrls1.memoryStateTime::IDLE   10618033250                       # Time in different power states
system.mem_ctrls1.memoryStateTime::REF     1296360000                       # Time in different power states
system.mem_ctrls1.memoryStateTime::PRE_PDN            0                       # Time in different power states
system.mem_ctrls1.memoryStateTime::ACT    26908468250                       # Time in different power states
system.mem_ctrls1.memoryStateTime::ACT_PDN            0                       # Time in different power states
system.mem_ctrls1.actEnergy::0              112568400                       # Energy for activate commands per rank (pJ)
system.mem_ctrls1.actEnergy::1              103549320                       # Energy for activate commands per rank (pJ)
system.mem_ctrls1.preEnergy::0               61421250                       # Energy for precharge commands per rank (pJ)
system.mem_ctrls1.preEnergy::1               56500125                       # Energy for precharge commands per rank (pJ)
system.mem_ctrls1.readEnergy::0             282750000                       # Energy for read commands per rank (pJ)
system.mem_ctrls1.readEnergy::1             273280800                       # Energy for read commands per rank (pJ)
system.mem_ctrls1.writeEnergy::0            141212160                       # Energy for write commands per rank (pJ)
system.mem_ctrls1.writeEnergy::1            136864080                       # Energy for write commands per rank (pJ)
system.mem_ctrls1.refreshEnergy::0         2535680160                       # Energy for refresh commands per rank (pJ)
system.mem_ctrls1.refreshEnergy::1         2535680160                       # Energy for refresh commands per rank (pJ)
system.mem_ctrls1.actBackEnergy::0        14033934945                       # Energy for active background per rank (pJ)
system.mem_ctrls1.actBackEnergy::1        13372309440                       # Energy for active background per rank (pJ)
system.mem_ctrls1.preBackEnergy::0        10983032250                       # Energy for precharge background per rank (pJ)
system.mem_ctrls1.preBackEnergy::1        11563405500                       # Energy for precharge background per rank (pJ)
system.mem_ctrls1.totalEnergy::0          28150599165                       # Total energy per rank (pJ)
system.mem_ctrls1.totalEnergy::1          28041589425                       # Total energy per rank (pJ)
system.mem_ctrls1.averagePower::0          725.110370                       # Core power per rank (mW)
system.mem_ctrls1.averagePower::1          722.302469                       # Core power per rank (mW)
system.mem_ctrls2.bytes_read::ruby.dir_cntrl2      4566656                       # Number of bytes read from this memory
system.mem_ctrls2.bytes_read::total           4566656                       # Number of bytes read from this memory
system.mem_ctrls2.bytes_written::ruby.dir_cntrl2      2748160                       # Number of bytes written to this memory
system.mem_ctrls2.bytes_written::total        2748160                       # Number of bytes written to this memory
system.mem_ctrls2.num_reads::ruby.dir_cntrl2        71354                       # Number of read requests responded to by this memory
system.mem_ctrls2.num_reads::total              71354                       # Number of read requests responded to by this memory
system.mem_ctrls2.num_writes::ruby.dir_cntrl2        42940                       # Number of write requests responded to by this memory
system.mem_ctrls2.num_writes::total             42940                       # Number of write requests responded to by this memory
system.mem_ctrls2.bw_read::ruby.dir_cntrl2    117618954                       # Total read bandwidth from this memory (bytes/s)
system.mem_ctrls2.bw_read::total            117618954                       # Total read bandwidth from this memory (bytes/s)
system.mem_ctrls2.bw_write::ruby.dir_cntrl2     70781707                       # Write bandwidth from this memory (bytes/s)
system.mem_ctrls2.bw_write::total            70781707                       # Write bandwidth from this memory (bytes/s)
system.mem_ctrls2.bw_total::ruby.dir_cntrl2    188400661                       # Total bandwidth to/from this memory (bytes/s)
system.mem_ctrls2.bw_total::total           188400661                       # Total bandwidth to/from this memory (bytes/s)
system.mem_ctrls2.readReqs                      71354                       # Number of read requests accepted
system.mem_ctrls2.writeReqs                     42940                       # Number of write requests accepted
system.mem_ctrls2.readBursts                    71354                       # Number of DRAM read bursts, including those serviced by the write queue
system.mem_ctrls2.writeBursts                   42940                       # Number of DRAM write bursts, including those merged in the write queue
system.mem_ctrls2.bytesReadDRAM               4565696                       # Total number of bytes read from DRAM
system.mem_ctrls2.bytesReadWrQ                    960                       # Total number of bytes read from write queue
system.mem_ctrls2.bytesWritten                2748096                       # Total number of bytes written to DRAM
system.mem_ctrls2.bytesReadSys                4566656                       # Total read bytes from the system interface side
system.mem_ctrls2.bytesWrittenSys             2748160                       # Total written bytes from the system interface side
system.mem_ctrls2.servicedByWrQ                    15                       # Number of DRAM read bursts serviced by the write queue
system.mem_ctrls2.mergedWrBursts                    0                       # Number of DRAM write bursts merged with an existing one
system.mem_ctrls2.neitherReadNorWriteReqs            0                       # Number of requests that are neither read nor write
system.mem_ctrls2.perBankRdBursts::0             4292                       # Per bank write bursts
system.mem_ctrls2.perBankRdBursts::1             4781                       # Per bank write bursts
system.mem_ctrls2.perBankRdBursts::2             4434                       # Per bank write bursts
system.mem_ctrls2.perBankRdBursts::3             4798                       # Per bank write bursts
system.mem_ctrls2.perBankRdBursts::4             4535                       # Per bank write bursts
system.mem_ctrls2.perBankRdBursts::5             4626                       # Per bank write bursts
system.mem_ctrls2.perBankRdBursts::6             4418                       # Per bank write bursts
system.mem_ctrls2.perBankRdBursts::7             4419                       # Per bank write bursts
system.mem_ctrls2.perBankRdBursts::8             4357                       # Per bank write bursts
system.mem_ctrls2.perBankRdBursts::9             4653                       # Per bank write bursts
system.mem_ctrls2.perBankRdBursts::10            4395                       # Per bank write bursts
system.mem_ctrls2.perBankRdBursts::11            4652                       # Per bank write bursts
system.mem_ctrls2.perBankRdBursts::12            4240                       # Per bank write bursts
system.mem_ctrls2.perBankRdBursts::13            4073                       # Per bank write bursts
system.mem_ctrls2.perBankRdBursts::14            4263                       # Per bank write bursts
system.mem_ctrls2.perBankRdBursts::15            4403                       # Per bank write bursts
system.mem_ctrls2.perBankWrBursts::0             2703                       # Per bank write bursts
system.mem_ctrls2.perBankWrBursts::1             2712                       # Per bank write bursts
system.mem_ctrls2.perBankWrBursts::2             2688                       # Per bank write bursts
system.mem_ctrls2.perBankWrBursts::3             2789                       # Per bank write bursts
system.mem_ctrls2.perBankWrBursts::4             2697                       # Per bank write bursts
system.mem_ctrls2.perBankWrBursts::5             2822                       # Per bank write bursts
system.mem_ctrls2.perBankWrBursts::6             2646                       # Per bank write bursts
system.mem_ctrls2.perBankWrBursts::7             2734                       # Per bank write bursts
system.mem_ctrls2.perBankWrBursts::8             2629                       # Per bank write bursts
system.mem_ctrls2.perBankWrBursts::9             2811                       # Per bank write bursts
system.mem_ctrls2.perBankWrBursts::10            2656                       # Per bank write bursts
system.mem_ctrls2.perBankWrBursts::11            2599                       # Per bank write bursts
system.mem_ctrls2.perBankWrBursts::12            2536                       # Per bank write bursts
system.mem_ctrls2.perBankWrBursts::13            2548                       # Per bank write bursts
system.mem_ctrls2.perBankWrBursts::14            2715                       # Per bank write bursts
system.mem_ctrls2.perBankWrBursts::15            2654                       # Per bank write bursts
system.mem_ctrls2.numRdRetry                      310                       # Number of times read queue was full causing retry
system.mem_ctrls2.numWrRetry                     2175                       # Number of times write queue was full causing retry
system.mem_ctrls2.totGap                  38825325500                       # Total gap between requests
system.mem_ctrls2.readPktSize::0                    0                       # Read request sizes (log2)
system.mem_ctrls2.readPktSize::1                    0                       # Read request sizes (log2)
system.mem_ctrls2.readPktSize::2                    0                       # Read request sizes (log2)
system.mem_ctrls2.readPktSize::3                    0                       # Read request sizes (log2)
system.mem_ctrls2.readPktSize::4                    0                       # Read request sizes (log2)
system.mem_ctrls2.readPktSize::5                    0                       # Read request sizes (log2)
system.mem_ctrls2.readPktSize::6                71354                       # Read request sizes (log2)
system.mem_ctrls2.writePktSize::0                   0                       # Write request sizes (log2)
system.mem_ctrls2.writePktSize::1                   0                       # Write request sizes (log2)
system.mem_ctrls2.writePktSize::2                   0                       # Write request sizes (log2)
system.mem_ctrls2.writePktSize::3                   0                       # Write request sizes (log2)
system.mem_ctrls2.writePktSize::4                   0                       # Write request sizes (log2)
system.mem_ctrls2.writePktSize::5                   0                       # Write request sizes (log2)
system.mem_ctrls2.writePktSize::6               42940                       # Write request sizes (log2)
system.mem_ctrls2.rdQLenPdf::0                  45012                       # What read queue length does an incoming req see
system.mem_ctrls2.rdQLenPdf::1                   3810                       # What read queue length does an incoming req see
system.mem_ctrls2.rdQLenPdf::2                   3318                       # What read queue length does an incoming req see
system.mem_ctrls2.rdQLenPdf::3                   2762                       # What read queue length does an incoming req see
system.mem_ctrls2.rdQLenPdf::4                   2386                       # What read queue length does an incoming req see
system.mem_ctrls2.rdQLenPdf::5                   1910                       # What read queue length does an incoming req see
system.mem_ctrls2.rdQLenPdf::6                   1694                       # What read queue length does an incoming req see
system.mem_ctrls2.rdQLenPdf::7                   1417                       # What read queue length does an incoming req see
system.mem_ctrls2.rdQLenPdf::8                   1129                       # What read queue length does an incoming req see
system.mem_ctrls2.rdQLenPdf::9                    943                       # What read queue length does an incoming req see
system.mem_ctrls2.rdQLenPdf::10                   889                       # What read queue length does an incoming req see
system.mem_ctrls2.rdQLenPdf::11                   719                       # What read queue length does an incoming req see
system.mem_ctrls2.rdQLenPdf::12                   644                       # What read queue length does an incoming req see
system.mem_ctrls2.rdQLenPdf::13                   517                       # What read queue length does an incoming req see
system.mem_ctrls2.rdQLenPdf::14                   430                       # What read queue length does an incoming req see
system.mem_ctrls2.rdQLenPdf::15                   392                       # What read queue length does an incoming req see
system.mem_ctrls2.rdQLenPdf::16                   367                       # What read queue length does an incoming req see
system.mem_ctrls2.rdQLenPdf::17                   337                       # What read queue length does an incoming req see
system.mem_ctrls2.rdQLenPdf::18                   299                       # What read queue length does an incoming req see
system.mem_ctrls2.rdQLenPdf::19                   284                       # What read queue length does an incoming req see
system.mem_ctrls2.rdQLenPdf::20                   235                       # What read queue length does an incoming req see
system.mem_ctrls2.rdQLenPdf::21                   211                       # What read queue length does an incoming req see
system.mem_ctrls2.rdQLenPdf::22                   181                       # What read queue length does an incoming req see
system.mem_ctrls2.rdQLenPdf::23                   178                       # What read queue length does an incoming req see
system.mem_ctrls2.rdQLenPdf::24                   159                       # What read queue length does an incoming req see
system.mem_ctrls2.rdQLenPdf::25                   156                       # What read queue length does an incoming req see
system.mem_ctrls2.rdQLenPdf::26                   148                       # What read queue length does an incoming req see
system.mem_ctrls2.rdQLenPdf::27                   133                       # What read queue length does an incoming req see
system.mem_ctrls2.rdQLenPdf::28                   107                       # What read queue length does an incoming req see
system.mem_ctrls2.rdQLenPdf::29                    84                       # What read queue length does an incoming req see
system.mem_ctrls2.rdQLenPdf::30                    87                       # What read queue length does an incoming req see
system.mem_ctrls2.rdQLenPdf::31                   401                       # What read queue length does an incoming req see
system.mem_ctrls2.wrQLenPdf::0                   7429                       # What write queue length does an incoming req see
system.mem_ctrls2.wrQLenPdf::1                   7634                       # What write queue length does an incoming req see
system.mem_ctrls2.wrQLenPdf::2                   7776                       # What write queue length does an incoming req see
system.mem_ctrls2.wrQLenPdf::3                   7902                       # What write queue length does an incoming req see
system.mem_ctrls2.wrQLenPdf::4                   8020                       # What write queue length does an incoming req see
system.mem_ctrls2.wrQLenPdf::5                    722                       # What write queue length does an incoming req see
system.mem_ctrls2.wrQLenPdf::6                    677                       # What write queue length does an incoming req see
system.mem_ctrls2.wrQLenPdf::7                   2780                       # What write queue length does an incoming req see
system.mem_ctrls2.bytesPerActivate::samples        28572                       # Bytes accessed per row activation
system.mem_ctrls2.bytesPerActivate::mean   255.961921                       # Bytes accessed per row activation
system.mem_ctrls2.bytesPerActivate::gmean   176.259048                       # Bytes accessed per row activation
system.mem_ctrls2.bytesPerActivate::stdev   240.814380                       # Bytes accessed per row activation
system.mem_ctrls2.bytesPerActivate::0-127         9283     32.49%     32.49% # Bytes accessed per row activation
system.mem_ctrls2.bytesPerActivate::128-255         6578     23.02%     55.51% # Bytes accessed per row activation
system.mem_ctrls2.bytesPerActivate::256-383         8146     28.51%     84.02% # Bytes accessed per row activation
system.mem_ctrls2.bytesPerActivate::384-511         1064      3.72%     87.75% # Bytes accessed per row activation
system.mem_ctrls2.bytesPerActivate::512-639          820      2.87%     90.62% # Bytes accessed per row activation
system.mem_ctrls2.bytesPerActivate::640-767          631      2.21%     92.83% # Bytes accessed per row activation
system.mem_ctrls2.bytesPerActivate::768-895          447      1.56%     94.39% # Bytes accessed per row activation
system.mem_ctrls2.bytesPerActivate::896-1023          457      1.60%     95.99% # Bytes accessed per row activation
system.mem_ctrls2.bytesPerActivate::1024-1151         1146      4.01%    100.00% # Bytes accessed per row activation
system.mem_ctrls2.bytesPerActivate::total        28572                       # Bytes accessed per row activation
system.mem_ctrls2.rdPerTurnAround::samples         7653                       # Reads before turning the bus around for writes
system.mem_ctrls2.rdPerTurnAround::mean      9.319613                       # Reads before turning the bus around for writes
system.mem_ctrls2.rdPerTurnAround::stdev    37.496346                       # Reads before turning the bus around for writes
system.mem_ctrls2.rdPerTurnAround::0-127         7648     99.93%     99.93% # Reads before turning the bus around for writes
system.mem_ctrls2.rdPerTurnAround::128-255            3      0.04%     99.97% # Reads before turning the bus around for writes
system.mem_ctrls2.rdPerTurnAround::1152-1279            1      0.01%     99.99% # Reads before turning the bus around for writes
system.mem_ctrls2.rdPerTurnAround::2816-2943            1      0.01%    100.00% # Reads before turning the bus around for writes
system.mem_ctrls2.rdPerTurnAround::total         7653                       # Reads before turning the bus around for writes
system.mem_ctrls2.wrPerTurnAround::samples         7653                       # Writes before turning the bus around for reads
system.mem_ctrls2.wrPerTurnAround::mean      5.610741                       # Writes before turning the bus around for reads
system.mem_ctrls2.wrPerTurnAround::gmean     5.378553                       # Writes before turning the bus around for reads
system.mem_ctrls2.wrPerTurnAround::stdev     2.231838                       # Writes before turning the bus around for reads
system.mem_ctrls2.wrPerTurnAround::4-7           7150     93.43%     93.43% # Writes before turning the bus around for reads
system.mem_ctrls2.wrPerTurnAround::8-11           152      1.99%     95.41% # Writes before turning the bus around for reads
system.mem_ctrls2.wrPerTurnAround::12-15          103      1.35%     96.76% # Writes before turning the bus around for reads
system.mem_ctrls2.wrPerTurnAround::16-19          248      3.24%    100.00% # Writes before turning the bus around for reads
system.mem_ctrls2.wrPerTurnAround::total         7653                       # Writes before turning the bus around for reads
system.mem_ctrls2.totQLat                  3074476927                       # Total ticks spent queuing
system.mem_ctrls2.totMemAccLat             4412083177                       # Total ticks spent from burst creation until serviced by the DRAM
system.mem_ctrls2.totBusLat                 356695000                       # Total ticks spent in databus transfers
system.mem_ctrls2.avgQLat                    43096.72                       # Average queueing delay per DRAM burst
system.mem_ctrls2.avgBusLat                   5000.00                       # Average bus latency per DRAM burst
system.mem_ctrls2.avgMemAccLat               61846.72                       # Average memory access latency per DRAM burst
system.mem_ctrls2.avgRdBW                      117.59                       # Average DRAM read bandwidth in MiByte/s
system.mem_ctrls2.avgWrBW                       70.78                       # Average achieved write bandwidth in MiByte/s
system.mem_ctrls2.avgRdBWSys                   117.62                       # Average system read bandwidth in MiByte/s
system.mem_ctrls2.avgWrBWSys                    70.78                       # Average system write bandwidth in MiByte/s
system.mem_ctrls2.peakBW                     12800.00                       # Theoretical peak bandwidth in MiByte/s
system.mem_ctrls2.busUtil                        1.47                       # Data bus utilization in percentage
system.mem_ctrls2.busUtilRead                    0.92                       # Data bus utilization in percentage for reads
system.mem_ctrls2.busUtilWrite                   0.55                       # Data bus utilization in percentage for writes
system.mem_ctrls2.avgRdQLen                      1.10                       # Average read queue length when enqueuing
system.mem_ctrls2.avgWrQLen                      2.88                       # Average write queue length when enqueuing
system.mem_ctrls2.readRowHits                   55787                       # Number of row buffer hits during reads
system.mem_ctrls2.writeRowHits                  29916                       # Number of row buffer hits during writes
system.mem_ctrls2.readRowHitRate                78.20                       # Row buffer hit rate for reads
system.mem_ctrls2.writeRowHitRate               69.67                       # Row buffer hit rate for writes
system.mem_ctrls2.avgGap                    339696.97                       # Average gap between requests
system.mem_ctrls2.pageHitRate                   74.99                       # Row buffer hit rate, read and write combined
system.mem_ctrls2.memoryStateTime::IDLE   10522935000                       # Time in different power states
system.mem_ctrls2.memoryStateTime::REF     1296360000                       # Time in different power states
system.mem_ctrls2.memoryStateTime::PRE_PDN            0                       # Time in different power states
system.mem_ctrls2.memoryStateTime::ACT    27003221250                       # Time in different power states
system.mem_ctrls2.memoryStateTime::ACT_PDN            0                       # Time in different power states
system.mem_ctrls2.actEnergy::0              112719600                       # Energy for activate commands per rank (pJ)
system.mem_ctrls2.actEnergy::1              103269600                       # Energy for activate commands per rank (pJ)
system.mem_ctrls2.preEnergy::0               61503750                       # Energy for precharge commands per rank (pJ)
system.mem_ctrls2.preEnergy::1               56347500                       # Energy for precharge commands per rank (pJ)
system.mem_ctrls2.readEnergy::0             283132200                       # Energy for read commands per rank (pJ)
system.mem_ctrls2.readEnergy::1             273226200                       # Energy for read commands per rank (pJ)
system.mem_ctrls2.writeEnergy::0            141205680                       # Energy for write commands per rank (pJ)
system.mem_ctrls2.writeEnergy::1            137039040                       # Energy for write commands per rank (pJ)
system.mem_ctrls2.refreshEnergy::0         2535680160                       # Energy for refresh commands per rank (pJ)
system.mem_ctrls2.refreshEnergy::1         2535680160                       # Energy for refresh commands per rank (pJ)
system.mem_ctrls2.actBackEnergy::0        14086624320                       # Energy for active background per rank (pJ)
system.mem_ctrls2.actBackEnergy::1        13446935550                       # Energy for active background per rank (pJ)
system.mem_ctrls2.preBackEnergy::0        10936813500                       # Energy for precharge background per rank (pJ)
system.mem_ctrls2.preBackEnergy::1        11497944000                       # Energy for precharge background per rank (pJ)
system.mem_ctrls2.totalEnergy::0          28157679210                       # Total energy per rank (pJ)
system.mem_ctrls2.totalEnergy::1          28050442050                       # Total energy per rank (pJ)
system.mem_ctrls2.averagePower::0          725.292740                       # Core power per rank (mW)
system.mem_ctrls2.averagePower::1          722.530498                       # Core power per rank (mW)
system.mem_ctrls3.bytes_read::ruby.dir_cntrl3      4548544                       # Number of bytes read from this memory
system.mem_ctrls3.bytes_read::total           4548544                       # Number of bytes read from this memory
system.mem_ctrls3.bytes_written::ruby.dir_cntrl3      2743616                       # Number of bytes written to this memory
system.mem_ctrls3.bytes_written::total        2743616                       # Number of bytes written to this memory
system.mem_ctrls3.num_reads::ruby.dir_cntrl3        71071                       # Number of read requests responded to by this memory
system.mem_ctrls3.num_reads::total              71071                       # Number of read requests responded to by this memory
system.mem_ctrls3.num_writes::ruby.dir_cntrl3        42869                       # Number of write requests responded to by this memory
system.mem_ctrls3.num_writes::total             42869                       # Number of write requests responded to by this memory
system.mem_ctrls3.bw_read::ruby.dir_cntrl3    117152461                       # Total read bandwidth from this memory (bytes/s)
system.mem_ctrls3.bw_read::total            117152461                       # Total read bandwidth from this memory (bytes/s)
system.mem_ctrls3.bw_write::ruby.dir_cntrl3     70664671                       # Write bandwidth from this memory (bytes/s)
system.mem_ctrls3.bw_write::total            70664671                       # Write bandwidth from this memory (bytes/s)
system.mem_ctrls3.bw_total::ruby.dir_cntrl3    187817132                       # Total bandwidth to/from this memory (bytes/s)
system.mem_ctrls3.bw_total::total           187817132                       # Total bandwidth to/from this memory (bytes/s)
system.mem_ctrls3.readReqs                      71072                       # Number of read requests accepted
system.mem_ctrls3.writeReqs                     42869                       # Number of write requests accepted
system.mem_ctrls3.readBursts                    71072                       # Number of DRAM read bursts, including those serviced by the write queue
system.mem_ctrls3.writeBursts                   42869                       # Number of DRAM write bursts, including those merged in the write queue
system.mem_ctrls3.bytesReadDRAM               4548160                       # Total number of bytes read from DRAM
system.mem_ctrls3.bytesReadWrQ                    448                       # Total number of bytes read from write queue
system.mem_ctrls3.bytesWritten                2743488                       # Total number of bytes written to DRAM
system.mem_ctrls3.bytesReadSys                4548608                       # Total read bytes from the system interface side
system.mem_ctrls3.bytesWrittenSys             2743616                       # Total written bytes from the system interface side
system.mem_ctrls3.servicedByWrQ                     7                       # Number of DRAM read bursts serviced by the write queue
system.mem_ctrls3.mergedWrBursts                    0                       # Number of DRAM write bursts merged with an existing one
system.mem_ctrls3.neitherReadNorWriteReqs            0                       # Number of requests that are neither read nor write
system.mem_ctrls3.perBankRdBursts::0             4281                       # Per bank write bursts
system.mem_ctrls3.perBankRdBursts::1             4737                       # Per bank write bursts
system.mem_ctrls3.perBankRdBursts::2             4407                       # Per bank write bursts
system.mem_ctrls3.perBankRdBursts::3             4759                       # Per bank write bursts
system.mem_ctrls3.perBankRdBursts::4             4487                       # Per bank write bursts
system.mem_ctrls3.perBankRdBursts::5             4595                       # Per bank write bursts
system.mem_ctrls3.perBankRdBursts::6             4405                       # Per bank write bursts
system.mem_ctrls3.perBankRdBursts::7             4417                       # Per bank write bursts
system.mem_ctrls3.perBankRdBursts::8             4365                       # Per bank write bursts
system.mem_ctrls3.perBankRdBursts::9             4633                       # Per bank write bursts
system.mem_ctrls3.perBankRdBursts::10            4406                       # Per bank write bursts
system.mem_ctrls3.perBankRdBursts::11            4620                       # Per bank write bursts
system.mem_ctrls3.perBankRdBursts::12            4224                       # Per bank write bursts
system.mem_ctrls3.perBankRdBursts::13            4052                       # Per bank write bursts
system.mem_ctrls3.perBankRdBursts::14            4276                       # Per bank write bursts
system.mem_ctrls3.perBankRdBursts::15            4401                       # Per bank write bursts
system.mem_ctrls3.perBankWrBursts::0             2708                       # Per bank write bursts
system.mem_ctrls3.perBankWrBursts::1             2700                       # Per bank write bursts
system.mem_ctrls3.perBankWrBursts::2             2689                       # Per bank write bursts
system.mem_ctrls3.perBankWrBursts::3             2773                       # Per bank write bursts
system.mem_ctrls3.perBankWrBursts::4             2690                       # Per bank write bursts
system.mem_ctrls3.perBankWrBursts::5             2817                       # Per bank write bursts
system.mem_ctrls3.perBankWrBursts::6             2639                       # Per bank write bursts
system.mem_ctrls3.perBankWrBursts::7             2726                       # Per bank write bursts
system.mem_ctrls3.perBankWrBursts::8             2625                       # Per bank write bursts
system.mem_ctrls3.perBankWrBursts::9             2804                       # Per bank write bursts
system.mem_ctrls3.perBankWrBursts::10            2651                       # Per bank write bursts
system.mem_ctrls3.perBankWrBursts::11            2605                       # Per bank write bursts
system.mem_ctrls3.perBankWrBursts::12            2530                       # Per bank write bursts
system.mem_ctrls3.perBankWrBursts::13            2555                       # Per bank write bursts
system.mem_ctrls3.perBankWrBursts::14            2707                       # Per bank write bursts
system.mem_ctrls3.perBankWrBursts::15            2648                       # Per bank write bursts
system.mem_ctrls3.numRdRetry                      364                       # Number of times read queue was full causing retry
system.mem_ctrls3.numWrRetry                     2386                       # Number of times write queue was full causing retry
system.mem_ctrls3.totGap                  38825108500                       # Total gap between requests
system.mem_ctrls3.readPktSize::0                    0                       # Read request sizes (log2)
system.mem_ctrls3.readPktSize::1                    0                       # Read request sizes (log2)
system.mem_ctrls3.readPktSize::2                    0                       # Read request sizes (log2)
system.mem_ctrls3.readPktSize::3                    0                       # Read request sizes (log2)
system.mem_ctrls3.readPktSize::4                    0                       # Read request sizes (log2)
system.mem_ctrls3.readPktSize::5                    0                       # Read request sizes (log2)
system.mem_ctrls3.readPktSize::6                71072                       # Read request sizes (log2)
system.mem_ctrls3.writePktSize::0                   0                       # Write request sizes (log2)
system.mem_ctrls3.writePktSize::1                   0                       # Write request sizes (log2)
system.mem_ctrls3.writePktSize::2                   0                       # Write request sizes (log2)
system.mem_ctrls3.writePktSize::3                   0                       # Write request sizes (log2)
system.mem_ctrls3.writePktSize::4                   0                       # Write request sizes (log2)
system.mem_ctrls3.writePktSize::5                   0                       # Write request sizes (log2)
system.mem_ctrls3.writePktSize::6               42869                       # Write request sizes (log2)
system.mem_ctrls3.rdQLenPdf::0                  44461                       # What read queue length does an incoming req see
system.mem_ctrls3.rdQLenPdf::1                   3276                       # What read queue length does an incoming req see
system.mem_ctrls3.rdQLenPdf::2                   2851                       # What read queue length does an incoming req see
system.mem_ctrls3.rdQLenPdf::3                   2622                       # What read queue length does an incoming req see
system.mem_ctrls3.rdQLenPdf::4                   2300                       # What read queue length does an incoming req see
system.mem_ctrls3.rdQLenPdf::5                   1994                       # What read queue length does an incoming req see
system.mem_ctrls3.rdQLenPdf::6                   1739                       # What read queue length does an incoming req see
system.mem_ctrls3.rdQLenPdf::7                   1551                       # What read queue length does an incoming req see
system.mem_ctrls3.rdQLenPdf::8                   1333                       # What read queue length does an incoming req see
system.mem_ctrls3.rdQLenPdf::9                   1152                       # What read queue length does an incoming req see
system.mem_ctrls3.rdQLenPdf::10                   984                       # What read queue length does an incoming req see
system.mem_ctrls3.rdQLenPdf::11                   865                       # What read queue length does an incoming req see
system.mem_ctrls3.rdQLenPdf::12                   746                       # What read queue length does an incoming req see
system.mem_ctrls3.rdQLenPdf::13                   602                       # What read queue length does an incoming req see
system.mem_ctrls3.rdQLenPdf::14                   527                       # What read queue length does an incoming req see
system.mem_ctrls3.rdQLenPdf::15                   474                       # What read queue length does an incoming req see
system.mem_ctrls3.rdQLenPdf::16                   417                       # What read queue length does an incoming req see
system.mem_ctrls3.rdQLenPdf::17                   339                       # What read queue length does an incoming req see
system.mem_ctrls3.rdQLenPdf::18                   310                       # What read queue length does an incoming req see
system.mem_ctrls3.rdQLenPdf::19                   290                       # What read queue length does an incoming req see
system.mem_ctrls3.rdQLenPdf::20                   251                       # What read queue length does an incoming req see
system.mem_ctrls3.rdQLenPdf::21                   225                       # What read queue length does an incoming req see
system.mem_ctrls3.rdQLenPdf::22                   197                       # What read queue length does an incoming req see
system.mem_ctrls3.rdQLenPdf::23                   179                       # What read queue length does an incoming req see
system.mem_ctrls3.rdQLenPdf::24                   170                       # What read queue length does an incoming req see
[...]
system.ruby.L2Cache_Controller.ISS.Mem_Data::total       124019                      
system.ruby.L2Cache_Controller.IS.Mem_Data |         407      3.29%      3.29% |         358      2.90%      6.19% |         375      3.03%      9.22% |         371      3.00%     12.22% |         378      3.06%     15.28% |         365      2.95%     18.23% |         379      3.07%     21.30% |         386      3.12%     24.42% |         373      3.02%     27.44% |         383      3.10%     30.54% |         407      3.29%     33.83% |         404      3.27%     37.10% |         412      3.33%     40.43% |         407      3.29%     43.73% |         408      3.30%     47.03% |         405      3.28%     50.30% |         413      3.34%     53.64% |         390      3.16%     56.80% |         388      3.14%     59.94% |         370      2.99%     62.93% |         364      2.94%     65.88% |         370      2.99%     68.87% |         369      2.99%     71.86% |         367      2.97%     74.82% |         395      3.20%     78.02% |         406      3.28%     81.30% |         412      3.33%     84.64% |         379      3.07%     87.70% |         382      3.09%     90.79% |         382      3.09%     93.88% |         384      3.11%     96.99% |         372      3.01%    100.00%
system.ruby.L2Cache_Controller.IS.Mem_Data::total        12361                      
system.ruby.L2Cache_Controller.IM.L1_GETX |           1    100.00%    100.00% |           0      0.00%    100.00% |           0      0.00%    100.00% |           0      0.00%    100.00% |           0      0.00%    100.00% |           0      0.00%    100.00% |           0      0.00%    100.00% |           0      0.00%    100.00% |           0      0.00%    100.00% |           0      0.00%    100.00% |           0      0.00%    100.00% |           0      0.00%    100.00% |           0      0.00%    100.00% |           0      0.00%    100.00% |           0      0.00%    100.00% |           0      0.00%    100.00% |           0      0.00%    100.00% |           0      0.00%    100.00% |           0      0.00%    100.00% |           0      0.00%    100.00% |           0      0.00%    100.00% |           0      0.00%    100.00% |           0      0.00%    100.00% |           0      0.00%    100.00% |           0      0.00%    100.00% |           0      0.00%    100.00% |           0      0.00%    100.00% |           0      0.00%    100.00% |           0      0.00%    100.00% |           0      0.00%    100.00% |           0      0.00%    100.00% |           0      0.00%    100.00%
system.ruby.L2Cache_Controller.IM.L1_GETX::total            1                      
system.ruby.L2Cache_Controller.IM.Mem_Data |        4705      3.12%      3.12% |        4697      3.12%      6.24% |        4706      3.12%      9.37% |        4713      3.13%     12.50% |        4704      3.12%     15.62% |        4711      3.13%     18.75% |        4710      3.13%     21.88% |        4694      3.12%     24.99% |        4710      3.13%     28.12% |        4711      3.13%     31.25% |        4696      3.12%     34.37% |        4715      3.13%     37.50% |        4700      3.12%     40.62% |        4703      3.12%     43.74% |        4702      3.12%     46.86% |        4698      3.12%     49.98% |        4716      3.13%     53.12% |        4710      3.13%     56.24% |        4712      3.13%     59.37% |        4706      3.12%     62.50% |        4709      3.13%     65.62% |        4722      3.14%     68.76% |        4701      3.12%     71.88% |        4707      3.13%     75.01% |        4720      3.13%     78.14% |        4710      3.13%     81.27% |        4716      3.13%     84.40% |        4702      3.12%     87.52% |        4703      3.12%     90.64% |        4699      3.12%     93.76% |        4703      3.12%     96.89% |        4688      3.11%    100.00%
system.ruby.L2Cache_Controller.IM.Mem_Data::total       150599                      
system.ruby.L2Cache_Controller.SS_MB.Exclusive_Unblock |           3      6.82%      6.82% |           6     13.64%     20.45% |           3      6.82%     27.27% |           4      9.09%     36.36% |           0      0.00%     36.36% |           0      0.00%     36.36% |           0      0.00%     36.36% |           0      0.00%     36.36% |           0      0.00%     36.36% |           0      0.00%     36.36% |           0      0.00%     36.36% |           0      0.00%     36.36% |           3      6.82%     43.18% |           0      0.00%     43.18% |           4      9.09%     52.27% |           0      0.00%     52.27% |           1      2.27%     54.55% |           0      0.00%     54.55% |          11     25.00%     79.55% |           2      4.55%     84.09% |           0      0.00%     84.09% |           1      2.27%     86.36% |           0      0.00%     86.36% |           1      2.27%     88.64% |           1      2.27%     90.91% |           0      0.00%     90.91% |           1      2.27%     93.18% |           2      4.55%     97.73% |           1      2.27%    100.00% |           0      0.00%    100.00% |           0      0.00%    100.00% |           0      0.00%    100.00%
system.ruby.L2Cache_Controller.SS_MB.Exclusive_Unblock::total           44                      
system.ruby.L2Cache_Controller.MT_MB.L1_GETS |           6    100.00%    100.00% |           0      0.00%    100.00% |           0      0.00%    100.00% |           0      0.00%    100.00% |           0      0.00%    100.00% |           0      0.00%    100.00% |           0      0.00%    100.00% |           0      0.00%    100.00% |           0      0.00%    100.00% |           0      0.00%    100.00% |           0      0.00%    100.00% |           0      0.00%    100.00% |           0      0.00%    100.00% |           0      0.00%    100.00% |           0      0.00%    100.00% |           0      0.00%    100.00% |           0      0.00%    100.00% |           0      0.00%    100.00% |           0      0.00%    100.00% |           0      0.00%    100.00% |           0      0.00%    100.00% |           0      0.00%    100.00% |           0      0.00%    100.00% |           0      0.00%    100.00% |           0      0.00%    100.00% |           0      0.00%    100.00% |           0      0.00%    100.00% |           0      0.00%    100.00% |           0      0.00%    100.00% |           0      0.00%    100.00% |           0      0.00%    100.00% |           0      0.00%    100.00%
system.ruby.L2Cache_Controller.MT_MB.L1_GETS::total            6                      
system.ruby.L2Cache_Controller.MT_MB.Exclusive_Unblock |       60407     12.23%     12.23% |       15538      3.15%     15.38% |       12747      2.58%     17.96% |       14800      3.00%     20.95% |       13333      2.70%     23.65% |       12717      2.57%     26.23% |       12240      2.48%     28.71% |       12902      2.61%     31.32% |       13097      2.65%     33.97% |       12757      2.58%     36.55% |       15511      3.14%     39.69% |       15760      3.19%     42.89% |       14128      2.86%     45.75% |       13215      2.68%     48.42% |       11998      2.43%     50.85% |       12462      2.52%     53.37% |       13974      2.83%     56.20% |       12805      2.59%     58.80% |       13227      2.68%     61.47% |       14224      2.88%     64.35% |       14901      3.02%     67.37% |       15876      3.21%     70.59% |       13721      2.78%     73.36% |       13754      2.78%     76.15% |       13836      2.80%     78.95% |       13398      2.71%     81.66% |       13250      2.68%     84.35% |       12958      2.62%     86.97% |       15562      3.15%     90.12% |       13986      2.83%     92.95% |       16358      3.31%     96.26% |       18447      3.74%    100.00%
system.ruby.L2Cache_Controller.MT_MB.Exclusive_Unblock::total       493889                      
system.ruby.L2Cache_Controller.MT_IIB.WB_Data |           0      0.00%      0.00% |           1     20.00%     20.00% |           1     20.00%     40.00% |           1     20.00%     60.00% |           0      0.00%     60.00% |           0      0.00%     60.00% |           1     20.00%     80.00% |           0      0.00%     80.00% |           0      0.00%     80.00% |           1     20.00%    100.00% |           0      0.00%    100.00% |           0      0.00%    100.00% |           0      0.00%    100.00% |           0      0.00%    100.00% |           0      0.00%    100.00% |           0      0.00%    100.00% |           0      0.00%    100.00% |           0      0.00%    100.00% |           0      0.00%    100.00% |           0      0.00%    100.00% |           0      0.00%    100.00% |           0      0.00%    100.00% |           0      0.00%    100.00% |           0      0.00%    100.00% |           0      0.00%    100.00% |           0      0.00%    100.00% |           0      0.00%    100.00% |           0      0.00%    100.00% |           0      0.00%    100.00% |           0      0.00%    100.00% |           0      0.00%    100.00% |           0      0.00%    100.00%
system.ruby.L2Cache_Controller.MT_IIB.WB_Data::total            5                      
system.ruby.L2Cache_Controller.MT_IIB.WB_Data_clean |        2979     51.05%     51.05% |           0      0.00%     51.05% |           0      0.00%     51.05% |           0      0.00%     51.05% |           0      0.00%     51.05% |           0      0.00%     51.05% |           0      0.00%     51.05% |           0      0.00%     51.05% |           0      0.00%     51.05% |           0      0.00%     51.05% |           0      0.00%     51.05% |           0      0.00%     51.05% |           0      0.00%     51.05% |           0      0.00%     51.05% |           0      0.00%     51.05% |           0      0.00%     51.05% |        2857     48.95%    100.00% |           0      0.00%    100.00% |           0      0.00%    100.00% |           0      0.00%    100.00% |           0      0.00%    100.00% |           0      0.00%    100.00% |           0      0.00%    100.00% |           0      0.00%    100.00% |           0      0.00%    100.00% |           0      0.00%    100.00% |           0      0.00%    100.00% |           0      0.00%    100.00% |           0      0.00%    100.00% |           0      0.00%    100.00% |           0      0.00%    100.00% |           0      0.00%    100.00%
system.ruby.L2Cache_Controller.MT_IIB.WB_Data_clean::total         5836                      
system.ruby.L2Cache_Controller.MT_IIB.Unblock |          65     23.38%     23.38% |           0      0.00%     23.38% |           0      0.00%     23.38% |           0      0.00%     23.38% |           0      0.00%     23.38% |           0      0.00%     23.38% |           0      0.00%     23.38% |           0      0.00%     23.38% |           0      0.00%     23.38% |           0      0.00%     23.38% |           0      0.00%     23.38% |           0      0.00%     23.38% |           0      0.00%     23.38% |           0      0.00%     23.38% |           0      0.00%     23.38% |           0      0.00%     23.38% |         213     76.62%    100.00% |           0      0.00%    100.00% |           0      0.00%    100.00% |           0      0.00%    100.00% |           0      0.00%    100.00% |           0      0.00%    100.00% |           0      0.00%    100.00% |           0      0.00%    100.00% |           0      0.00%    100.00% |           0      0.00%    100.00% |           0      0.00%    100.00% |           0      0.00%    100.00% |           0      0.00%    100.00% |           0      0.00%    100.00% |           0      0.00%    100.00% |           0      0.00%    100.00%
system.ruby.L2Cache_Controller.MT_IIB.Unblock::total          278                      
system.ruby.L2Cache_Controller.MT_IB.WB_Data_clean |          65     23.38%     23.38% |           0      0.00%     23.38% |           0      0.00%     23.38% |           0      0.00%     23.38% |           0      0.00%     23.38% |           0      0.00%     23.38% |           0      0.00%     23.38% |           0      0.00%     23.38% |           0      0.00%     23.38% |           0      0.00%     23.38% |           0      0.00%     23.38% |           0      0.00%     23.38% |           0      0.00%     23.38% |           0      0.00%     23.38% |           0      0.00%     23.38% |           0      0.00%     23.38% |         213     76.62%    100.00% |           0      0.00%    100.00% |           0      0.00%    100.00% |           0      0.00%    100.00% |           0      0.00%    100.00% |           0      0.00%    100.00% |           0      0.00%    100.00% |           0      0.00%    100.00% |           0      0.00%    100.00% |           0      0.00%    100.00% |           0      0.00%    100.00% |           0      0.00%    100.00% |           0      0.00%    100.00% |           0      0.00%    100.00% |           0      0.00%    100.00% |           0      0.00%    100.00%
system.ruby.L2Cache_Controller.MT_IB.WB_Data_clean::total          278                      
system.ruby.L2Cache_Controller.MT_SB.Unblock |        2979     51.00%     51.00% |           1      0.02%     51.02% |           1      0.02%     51.04% |           1      0.02%     51.05% |           0      0.00%     51.05% |           0      0.00%     51.05% |           1      0.02%     51.07% |           0      0.00%     51.07% |           0      0.00%     51.07% |           1      0.02%     51.09% |           0      0.00%     51.09% |           0      0.00%     51.09% |           0      0.00%     51.09% |           0      0.00%     51.09% |           0      0.00%     51.09% |           0      0.00%     51.09% |        2857     48.91%    100.00% |           0      0.00%    100.00% |           0      0.00%    100.00% |           0      0.00%    100.00% |           0      0.00%    100.00% |           0      0.00%    100.00% |           0      0.00%    100.00% |           0      0.00%    100.00% |           0      0.00%    100.00% |           0      0.00%    100.00% |           0      0.00%    100.00% |           0      0.00%    100.00% |           0      0.00%    100.00% |           0      0.00%    100.00% |           0      0.00%    100.00% |           0      0.00%    100.00%
system.ruby.L2Cache_Controller.MT_SB.Unblock::total         5841                      
system.ruby.SimicsNetworkPortInterface_Controller.MessageSend |       16626     10.23%     10.23% |       81265     50.00%     60.23% |        7970      4.90%     65.13% |        7946      4.89%     70.02% |        8236      5.07%     75.09% |        7975      4.91%     80.00% |        8123      5.00%     84.99% |        7961      4.90%     89.89% |        8263      5.08%     94.98% |        8165      5.02%    100.00% |           0      0.00%    100.00% |           0      0.00%    100.00% |           0      0.00%    100.00% |           0      0.00%    100.00% |           0      0.00%    100.00% |           0      0.00%    100.00% |           0      0.00%    100.00% |           0      0.00%    100.00% |           0      0.00%    100.00% |           0      0.00%    100.00% |           0      0.00%    100.00% |           0      0.00%    100.00% |           0      0.00%    100.00% |           0      0.00%    100.00% |           0      0.00%    100.00% |           0      0.00%    100.00% |           0      0.00%    100.00% |           0      0.00%    100.00% |           0      0.00%    100.00% |           0      0.00%    100.00% |           0      0.00%    100.00% |           0      0.00%    100.00%
system.ruby.SimicsNetworkPortInterface_Controller.MessageSend::total       162530                      
system.ruby.SimicsNetworkPortInterface_Controller.MessageRecv |       16626     10.23%     10.23% |       81265     50.00%     60.23% |        7970      4.90%     65.13% |        7946      4.89%     70.02% |        8236      5.07%     75.09% |        7975      4.91%     80.00% |        8123      5.00%     84.99% |        7961      4.90%     89.89% |        8263      5.08%     94.98% |        8165      5.02%    100.00% |           0      0.00%    100.00% |           0      0.00%    100.00% |           0      0.00%    100.00% |           0      0.00%    100.00% |           0      0.00%    100.00% |           0      0.00%    100.00% |           0      0.00%    100.00% |           0      0.00%    100.00% |           0      0.00%    100.00% |           0      0.00%    100.00% |           0      0.00%    100.00% |           0      0.00%    100.00% |           0      0.00%    100.00% |           0      0.00%    100.00% |           0      0.00%    100.00% |           0      0.00%    100.00% |           0      0.00%    100.00% |           0      0.00%    100.00% |           0      0.00%    100.00% |           0      0.00%    100.00% |           0      0.00%    100.00% |           0      0.00%    100.00%
system.ruby.SimicsNetworkPortInterface_Controller.MessageRecv::total       162530                      
system.ruby.SimicsNetworkPortInterface_Controller.A.MessageSend |       16626     10.23%     10.23% |       81265     50.00%     60.23% |        7970      4.90%     65.13% |        7946      4.89%     70.02% |        8236      5.07%     75.09% |        7975      4.91%     80.00% |        8123      5.00%     84.99% |        7961      4.90%     89.89% |        8263      5.08%     94.98% |        8165      5.02%    100.00% |           0      0.00%    100.00% |           0      0.00%    100.00% |           0      0.00%    100.00% |           0      0.00%    100.00% |           0      0.00%    100.00% |           0      0.00%    100.00% |           0      0.00%    100.00% |           0      0.00%    100.00% |           0      0.00%    100.00% |           0      0.00%    100.00% |           0      0.00%    100.00% |           0      0.00%    100.00% |           0      0.00%    100.00% |           0      0.00%    100.00% |           0      0.00%    100.00% |           0      0.00%    100.00% |           0      0.00%    100.00% |           0      0.00%    100.00% |           0      0.00%    100.00% |           0      0.00%    100.00% |           0      0.00%    100.00% |           0      0.00%    100.00%
system.ruby.SimicsNetworkPortInterface_Controller.A.MessageSend::total       162530                      
system.ruby.SimicsNetworkPortInterface_Controller.A.MessageRecv |       16626     10.23%     10.23% |       81265     50.00%     60.23% |        7970      4.90%     65.13% |        7946      4.89%     70.02% |        8236      5.07%     75.09% |        7975      4.91%     80.00% |        8123      5.00%     84.99% |        7961      4.90%     89.89% |        8263      5.08%     94.98% |        8165      5.02%    100.00% |           0      0.00%    100.00% |           0      0.00%    100.00% |           0      0.00%    100.00% |           0      0.00%    100.00% |           0      0.00%    100.00% |           0      0.00%    100.00% |           0      0.00%    100.00% |           0      0.00%    100.00% |           0      0.00%    100.00% |           0      0.00%    100.00% |           0      0.00%    100.00% |           0      0.00%    100.00% |           0      0.00%    100.00% |           0      0.00%    100.00% |           0      0.00%    100.00% |           0      0.00%    100.00% |           0      0.00%    100.00% |           0      0.00%    100.00% |           0      0.00%    100.00% |           0      0.00%    100.00% |           0      0.00%    100.00% |           0      0.00%    100.00%
system.ruby.SimicsNetworkPortInterface_Controller.A.MessageRecv::total       162530                      
system.switch_cpus.kern.inst.arm                    0                       # number of arm instructions executed
system.switch_cpus.kern.inst.quiesce                0                       # number of quiesce instructions executed

---------- End Simulation Statistics   ----------
