
---------- Begin Simulation Statistics ----------
sim_seconds                                  0.059741                       # Number of seconds simulated
sim_ticks                                 59740841500                       # Number of ticks simulated
final_tick                               5235908920000                       # Number of ticks from beginning of simulation (restored from checkpoints and never reset)
sim_freq                                 1000000000000                       # Frequency of simulated ticks
host_inst_rate                                  45604                       # Simulator instruction rate (inst/s)
host_op_rate                                    81138                       # Simulator op (including micro ops) rate (op/s)
host_tick_rate                               68583605                       # Simulator tick rate (ticks/s)
host_mem_usage                                4818660                       # Number of bytes of host memory used
host_seconds                                   871.07                       # Real time elapsed on the host
sim_insts                                    39724420                       # Number of instructions simulated
sim_ops                                      70676422                       # Number of ops (including micro ops) simulated
system.voltage_domain.voltage                       1                       # Voltage in Volts
system.clk_domain.clock                           500                       # Clock period in ticks
system.mem_ctrls0.bytes_read::ruby.dir_cntrl0     14034112                       # Number of bytes read from this memory
system.mem_ctrls0.bytes_read::total          14034112                       # Number of bytes read from this memory
system.mem_ctrls0.bytes_written::ruby.dir_cntrl0      4007680                       # Number of bytes written to this memory
system.mem_ctrls0.bytes_written::total        4007680                       # Number of bytes written to this memory
system.mem_ctrls0.num_reads::ruby.dir_cntrl0       219283                       # Number of read requests responded to by this memory
system.mem_ctrls0.num_reads::total             219283                       # Number of read requests responded to by this memory
system.mem_ctrls0.num_writes::ruby.dir_cntrl0        62620                       # Number of write requests responded to by this memory
system.mem_ctrls0.num_writes::total             62620                       # Number of write requests responded to by this memory
system.mem_ctrls0.bw_read::ruby.dir_cntrl0    234916544                       # Total read bandwidth from this memory (bytes/s)
system.mem_ctrls0.bw_read::total            234916544                       # Total read bandwidth from this memory (bytes/s)
system.mem_ctrls0.bw_write::ruby.dir_cntrl0     67084425                       # Write bandwidth from this memory (bytes/s)
system.mem_ctrls0.bw_write::total            67084425                       # Write bandwidth from this memory (bytes/s)
system.mem_ctrls0.bw_total::ruby.dir_cntrl0    302000969                       # Total bandwidth to/from this memory (bytes/s)
system.mem_ctrls0.bw_total::total           302000969                       # Total bandwidth to/from this memory (bytes/s)
system.mem_ctrls0.readReqs                     219283                       # Number of read requests accepted
system.mem_ctrls0.writeReqs                     62620                       # Number of write requests accepted
system.mem_ctrls0.readBursts                   219283                       # Number of DRAM read bursts, including those serviced by the write queue
system.mem_ctrls0.writeBursts                   62620                       # Number of DRAM write bursts, including those merged in the write queue
system.mem_ctrls0.bytesReadDRAM              14032320                       # Total number of bytes read from DRAM
system.mem_ctrls0.bytesReadWrQ                   1792                       # Total number of bytes read from write queue
system.mem_ctrls0.bytesWritten                4007680                       # Total number of bytes written to DRAM
system.mem_ctrls0.bytesReadSys               14034112                       # Total read bytes from the system interface side
system.mem_ctrls0.bytesWrittenSys             4007680                       # Total written bytes from the system interface side
system.mem_ctrls0.servicedByWrQ                    28                       # Number of DRAM read bursts serviced by the write queue
system.mem_ctrls0.mergedWrBursts                    0                       # Number of DRAM write bursts merged with an existing one
system.mem_ctrls0.neitherReadNorWriteReqs            0                       # Number of requests that are neither read nor write
system.mem_ctrls0.perBankRdBursts::0            13461                       # Per bank write bursts
system.mem_ctrls0.perBankRdBursts::1            13998                       # Per bank write bursts
system.mem_ctrls0.perBankRdBursts::2            13664                       # Per bank write bursts
system.mem_ctrls0.perBankRdBursts::3            14063                       # Per bank write bursts
system.mem_ctrls0.perBankRdBursts::4            13702                       # Per bank write bursts
system.mem_ctrls0.perBankRdBursts::5            14279                       # Per bank write bursts
system.mem_ctrls0.perBankRdBursts::6            13742                       # Per bank write bursts
system.mem_ctrls0.perBankRdBursts::7            13669                       # Per bank write bursts
system.mem_ctrls0.perBankRdBursts::8            13562                       # Per bank write bursts
system.mem_ctrls0.perBankRdBursts::9            13898                       # Per bank write bursts
system.mem_ctrls0.perBankRdBursts::10           13605                       # Per bank write bursts
system.mem_ctrls0.perBankRdBursts::11           13834                       # Per bank write bursts
system.mem_ctrls0.perBankRdBursts::12           13385                       # Per bank write bursts
system.mem_ctrls0.perBankRdBursts::13           13264                       # Per bank write bursts
system.mem_ctrls0.perBankRdBursts::14           13559                       # Per bank write bursts
system.mem_ctrls0.perBankRdBursts::15           13570                       # Per bank write bursts
system.mem_ctrls0.perBankWrBursts::0             3844                       # Per bank write bursts
system.mem_ctrls0.perBankWrBursts::1             3927                       # Per bank write bursts
system.mem_ctrls0.perBankWrBursts::2             3906                       # Per bank write bursts
system.mem_ctrls0.perBankWrBursts::3             4132                       # Per bank write bursts
system.mem_ctrls0.perBankWrBursts::4             3927                       # Per bank write bursts
system.mem_ctrls0.perBankWrBursts::5             4078                       # Per bank write bursts
system.mem_ctrls0.perBankWrBursts::6             3983                       # Per bank write bursts
system.mem_ctrls0.perBankWrBursts::7             3947                       # Per bank write bursts
system.mem_ctrls0.perBankWrBursts::8             3818                       # Per bank write bursts
system.mem_ctrls0.perBankWrBursts::9             4072                       # Per bank write bursts
system.mem_ctrls0.perBankWrBursts::10            3842                       # Per bank write bursts
system.mem_ctrls0.perBankWrBursts::11            3777                       # Per bank write bursts
system.mem_ctrls0.perBankWrBursts::12            3724                       # Per bank write bursts
system.mem_ctrls0.perBankWrBursts::13            3761                       # Per bank write bursts
system.mem_ctrls0.perBankWrBursts::14            4009                       # Per bank write bursts
system.mem_ctrls0.perBankWrBursts::15            3873                       # Per bank write bursts
system.mem_ctrls0.numRdRetry                      872                       # Number of times read queue was full causing retry
system.mem_ctrls0.numWrRetry                      397                       # Number of times write queue was full causing retry
system.mem_ctrls0.totGap                  59740350000                       # Total gap between requests
system.mem_ctrls0.readPktSize::0                    0                       # Read request sizes (log2)
system.mem_ctrls0.readPktSize::1                    0                       # Read request sizes (log2)
system.mem_ctrls0.readPktSize::2                    0                       # Read request sizes (log2)
system.mem_ctrls0.readPktSize::3                    0                       # Read request sizes (log2)
system.mem_ctrls0.readPktSize::4                    0                       # Read request sizes (log2)
system.mem_ctrls0.readPktSize::5                    0                       # Read request sizes (log2)
system.mem_ctrls0.readPktSize::6               219283                       # Read request sizes (log2)
system.mem_ctrls0.writePktSize::0                   0                       # Write request sizes (log2)
system.mem_ctrls0.writePktSize::1                   0                       # Write request sizes (log2)
system.mem_ctrls0.writePktSize::2                   0                       # Write request sizes (log2)
system.mem_ctrls0.writePktSize::3                   0                       # Write request sizes (log2)
system.mem_ctrls0.writePktSize::4                   0                       # Write request sizes (log2)
system.mem_ctrls0.writePktSize::5                   0                       # Write request sizes (log2)
system.mem_ctrls0.writePktSize::6               62620                       # Write request sizes (log2)
system.mem_ctrls0.rdQLenPdf::0                 160834                       # What read queue length does an incoming req see
system.mem_ctrls0.rdQLenPdf::1                  42266                       # What read queue length does an incoming req see
system.mem_ctrls0.rdQLenPdf::2                  11202                       # What read queue length does an incoming req see
system.mem_ctrls0.rdQLenPdf::3                   2561                       # What read queue length does an incoming req see
system.mem_ctrls0.rdQLenPdf::4                    552                       # What read queue length does an incoming req see
system.mem_ctrls0.rdQLenPdf::5                    167                       # What read queue length does an incoming req see
system.mem_ctrls0.rdQLenPdf::6                     89                       # What read queue length does an incoming req see
system.mem_ctrls0.rdQLenPdf::7                     61                       # What read queue length does an incoming req see
system.mem_ctrls0.rdQLenPdf::8                     49                       # What read queue length does an incoming req see
system.mem_ctrls0.rdQLenPdf::9                     49                       # What read queue length does an incoming req see
system.mem_ctrls0.rdQLenPdf::10                    26                       # What read queue length does an incoming req see
system.mem_ctrls0.rdQLenPdf::11                    32                       # What read queue length does an incoming req see
system.mem_ctrls0.rdQLenPdf::12                    32                       # What read queue length does an incoming req see
system.mem_ctrls0.rdQLenPdf::13                    27                       # What read queue length does an incoming req see
system.mem_ctrls0.rdQLenPdf::14                    26                       # What read queue length does an incoming req see
system.mem_ctrls0.rdQLenPdf::15                    29                       # What read queue length does an incoming req see
system.mem_ctrls0.rdQLenPdf::16                    38                       # What read queue length does an incoming req see
system.mem_ctrls0.rdQLenPdf::17                    26                       # What read queue length does an incoming req see
system.mem_ctrls0.rdQLenPdf::18                    29                       # What read queue length does an incoming req see
system.mem_ctrls0.rdQLenPdf::19                    27                       # What read queue length does an incoming req see
system.mem_ctrls0.rdQLenPdf::20                    21                       # What read queue length does an incoming req see
system.mem_ctrls0.rdQLenPdf::21                    14                       # What read queue length does an incoming req see
system.mem_ctrls0.rdQLenPdf::22                     8                       # What read queue length does an incoming req see
system.mem_ctrls0.rdQLenPdf::23                    12                       # What read queue length does an incoming req see
system.mem_ctrls0.rdQLenPdf::24                    14                       # What read queue length does an incoming req see
system.mem_ctrls0.rdQLenPdf::25                    14                       # What read queue length does an incoming req see
system.mem_ctrls0.rdQLenPdf::26                    11                       # What read queue length does an incoming req see
system.mem_ctrls0.rdQLenPdf::27                    15                       # What read queue length does an incoming req see
system.mem_ctrls0.rdQLenPdf::28                    15                       # What read queue length does an incoming req see
system.mem_ctrls0.rdQLenPdf::29                    16                       # What read queue length does an incoming req see
system.mem_ctrls0.rdQLenPdf::30                    30                       # What read queue length does an incoming req see
system.mem_ctrls0.rdQLenPdf::31                   963                       # What read queue length does an incoming req see
system.mem_ctrls0.wrQLenPdf::0                  12177                       # What write queue length does an incoming req see
system.mem_ctrls0.wrQLenPdf::1                  12359                       # What write queue length does an incoming req see
system.mem_ctrls0.wrQLenPdf::2                  12359                       # What write queue length does an incoming req see
system.mem_ctrls0.wrQLenPdf::3                  12322                       # What write queue length does an incoming req see
system.mem_ctrls0.wrQLenPdf::4                  12306                       # What write queue length does an incoming req see
system.mem_ctrls0.wrQLenPdf::5                    256                       # What write queue length does an incoming req see
system.mem_ctrls0.wrQLenPdf::6                    201                       # What write queue length does an incoming req see
system.mem_ctrls0.wrQLenPdf::7                    640                       # What write queue length does an incoming req see
system.mem_ctrls0.bytesPerActivate::samples        85491                       # Bytes accessed per row activation
system.mem_ctrls0.bytesPerActivate::mean   211.008878                       # Bytes accessed per row activation
system.mem_ctrls0.bytesPerActivate::gmean   136.048005                       # Bytes accessed per row activation
system.mem_ctrls0.bytesPerActivate::stdev   239.162784                       # Bytes accessed per row activation
system.mem_ctrls0.bytesPerActivate::0-127        41350     48.37%     48.37% # Bytes accessed per row activation
system.mem_ctrls0.bytesPerActivate::128-255        17939     20.98%     69.35% # Bytes accessed per row activation
system.mem_ctrls0.bytesPerActivate::256-383        14880     17.41%     86.76% # Bytes accessed per row activation
system.mem_ctrls0.bytesPerActivate::384-511         2608      3.05%     89.81% # Bytes accessed per row activation
system.mem_ctrls0.bytesPerActivate::512-639         1792      2.10%     91.90% # Bytes accessed per row activation
system.mem_ctrls0.bytesPerActivate::640-767         1326      1.55%     93.45% # Bytes accessed per row activation
system.mem_ctrls0.bytesPerActivate::768-895         1098      1.28%     94.74% # Bytes accessed per row activation
system.mem_ctrls0.bytesPerActivate::896-1023          964      1.13%     95.87% # Bytes accessed per row activation
system.mem_ctrls0.bytesPerActivate::1024-1151         3534      4.13%    100.00% # Bytes accessed per row activation
system.mem_ctrls0.bytesPerActivate::total        85491                       # Bytes accessed per row activation
system.mem_ctrls0.rdPerTurnAround::samples        12223                       # Reads before turning the bus around for writes
system.mem_ctrls0.rdPerTurnAround::mean     17.888162                       # Reads before turning the bus around for writes
system.mem_ctrls0.rdPerTurnAround::stdev    75.982284                       # Reads before turning the bus around for writes
system.mem_ctrls0.rdPerTurnAround::0-127        11858     97.01%     97.01% # Reads before turning the bus around for writes
system.mem_ctrls0.rdPerTurnAround::128-255          191      1.56%     98.58% # Reads before turning the bus around for writes
system.mem_ctrls0.rdPerTurnAround::256-383           74      0.61%     99.18% # Reads before turning the bus around for writes
system.mem_ctrls0.rdPerTurnAround::384-511           46      0.38%     99.56% # Reads before turning the bus around for writes
system.mem_ctrls0.rdPerTurnAround::512-639           27      0.22%     99.78% # Reads before turning the bus around for writes
system.mem_ctrls0.rdPerTurnAround::640-767           13      0.11%     99.89% # Reads before turning the bus around for writes
system.mem_ctrls0.rdPerTurnAround::768-895            2      0.02%     99.90% # Reads before turning the bus around for writes
system.mem_ctrls0.rdPerTurnAround::896-1023            5      0.04%     99.94% # Reads before turning the bus around for writes
system.mem_ctrls0.rdPerTurnAround::1024-1151            1      0.01%     99.95% # Reads before turning the bus around for writes
system.mem_ctrls0.rdPerTurnAround::1152-1279            1      0.01%     99.96% # Reads before turning the bus around for writes
system.mem_ctrls0.rdPerTurnAround::1280-1407            2      0.02%     99.98% # Reads before turning the bus around for writes
system.mem_ctrls0.rdPerTurnAround::1408-1535            1      0.01%     99.98% # Reads before turning the bus around for writes
system.mem_ctrls0.rdPerTurnAround::1664-1791            1      0.01%     99.99% # Reads before turning the bus around for writes
system.mem_ctrls0.rdPerTurnAround::3968-4095            1      0.01%    100.00% # Reads before turning the bus around for writes
system.mem_ctrls0.rdPerTurnAround::total        12223                       # Reads before turning the bus around for writes
system.mem_ctrls0.wrPerTurnAround::samples        12223                       # Writes before turning the bus around for reads
system.mem_ctrls0.wrPerTurnAround::mean      5.123129                       # Writes before turning the bus around for reads
system.mem_ctrls0.wrPerTurnAround::gmean     5.082786                       # Writes before turning the bus around for reads
system.mem_ctrls0.wrPerTurnAround::stdev     0.924214                       # Writes before turning the bus around for reads
system.mem_ctrls0.wrPerTurnAround::4-7          12098     98.98%     98.98% # Writes before turning the bus around for reads
system.mem_ctrls0.wrPerTurnAround::8-11            43      0.35%     99.33% # Writes before turning the bus around for reads
system.mem_ctrls0.wrPerTurnAround::12-15           14      0.11%     99.44% # Writes before turning the bus around for reads
system.mem_ctrls0.wrPerTurnAround::16-19           68      0.56%    100.00% # Writes before turning the bus around for reads
system.mem_ctrls0.wrPerTurnAround::total        12223                       # Writes before turning the bus around for reads
system.mem_ctrls0.totQLat                  3085412000                       # Total ticks spent queuing
system.mem_ctrls0.totMemAccLat             7196443250                       # Total ticks spent from burst creation until serviced by the DRAM
system.mem_ctrls0.totBusLat                1096275000                       # Total ticks spent in databus transfers
system.mem_ctrls0.avgQLat                    14072.25                       # Average queueing delay per DRAM burst
system.mem_ctrls0.avgBusLat                   5000.00                       # Average bus latency per DRAM burst
system.mem_ctrls0.avgMemAccLat               32822.25                       # Average memory access latency per DRAM burst
system.mem_ctrls0.avgRdBW                      234.89                       # Average DRAM read bandwidth in MiByte/s
system.mem_ctrls0.avgWrBW                       67.08                       # Average achieved write bandwidth in MiByte/s
system.mem_ctrls0.avgRdBWSys                   234.92                       # Average system read bandwidth in MiByte/s
system.mem_ctrls0.avgWrBWSys                    67.08                       # Average system write bandwidth in MiByte/s
system.mem_ctrls0.peakBW                     12800.00                       # Theoretical peak bandwidth in MiByte/s
system.mem_ctrls0.busUtil                        2.36                       # Data bus utilization in percentage
system.mem_ctrls0.busUtilRead                    1.84                       # Data bus utilization in percentage for reads
system.mem_ctrls0.busUtilWrite                   0.52                       # Data bus utilization in percentage for writes
system.mem_ctrls0.avgRdQLen                      1.12                       # Average read queue length when enqueuing
system.mem_ctrls0.avgWrQLen                      2.85                       # Average write queue length when enqueuing
system.mem_ctrls0.readRowHits                  157773                       # Number of row buffer hits during reads
system.mem_ctrls0.writeRowHits                  38604                       # Number of row buffer hits during writes
system.mem_ctrls0.readRowHitRate                71.96                       # Row buffer hit rate for reads
system.mem_ctrls0.writeRowHitRate               61.65                       # Row buffer hit rate for writes
system.mem_ctrls0.avgGap                    211918.11                       # Average gap between requests
system.mem_ctrls0.pageHitRate                   69.67                       # Row buffer hit rate, read and write combined
system.mem_ctrls0.memoryStateTime::IDLE   10793380250                       # Time in different power states
system.mem_ctrls0.memoryStateTime::REF     1994720000                       # Time in different power states
system.mem_ctrls0.memoryStateTime::PRE_PDN            0                       # Time in different power states
system.mem_ctrls0.memoryStateTime::ACT    46948401250                       # Time in different power states
system.mem_ctrls0.memoryStateTime::ACT_PDN            0                       # Time in different power states
system.mem_ctrls0.actEnergy::0              327998160                       # Energy for activate commands per rank (pJ)
system.mem_ctrls0.actEnergy::1              318283560                       # Energy for activate commands per rank (pJ)
system.mem_ctrls0.preEnergy::0              178967250                       # Energy for precharge commands per rank (pJ)
system.mem_ctrls0.preEnergy::1              173666625                       # Energy for precharge commands per rank (pJ)
system.mem_ctrls0.readEnergy::0             862438200                       # Energy for read commands per rank (pJ)
system.mem_ctrls0.readEnergy::1             847633800                       # Energy for read commands per rank (pJ)
system.mem_ctrls0.writeEnergy::0            205701120                       # Energy for write commands per rank (pJ)
system.mem_ctrls0.writeEnergy::1            200076480                       # Energy for write commands per rank (pJ)
system.mem_ctrls0.refreshEnergy::0         3901672320                       # Energy for refresh commands per rank (pJ)
system.mem_ctrls0.refreshEnergy::1         3901672320                       # Energy for refresh commands per rank (pJ)
system.mem_ctrls0.actBackEnergy::0        25610764905                       # Energy for active background per rank (pJ)
system.mem_ctrls0.actBackEnergy::1        24919997580                       # Energy for active background per rank (pJ)
system.mem_ctrls0.preBackEnergy::0        13376238750                       # Energy for precharge background per rank (pJ)
system.mem_ctrls0.preBackEnergy::1        13982175000                       # Energy for precharge background per rank (pJ)
system.mem_ctrls0.totalEnergy::0          44463780705                       # Total energy per rank (pJ)
system.mem_ctrls0.totalEnergy::1          44343505365                       # Total energy per rank (pJ)
system.mem_ctrls0.averagePower::0          744.333489                       # Core power per rank (mW)
system.mem_ctrls0.averagePower::1          742.320053                       # Core power per rank (mW)
system.mem_ctrls1.bytes_read::ruby.dir_cntrl1     13851264                       # Number of bytes read from this memory
system.mem_ctrls1.bytes_read::total          13851264                       # Number of bytes read from this memory
system.mem_ctrls1.bytes_written::ruby.dir_cntrl1      3840704                       # Number of bytes written to this memory
system.mem_ctrls1.bytes_written::total        3840704                       # Number of bytes written to this memory
system.mem_ctrls1.num_reads::ruby.dir_cntrl1       216426                       # Number of read requests responded to by this memory
system.mem_ctrls1.num_reads::total             216426                       # Number of read requests responded to by this memory
system.mem_ctrls1.num_writes::ruby.dir_cntrl1        60011                       # Number of write requests responded to by this memory
system.mem_ctrls1.num_writes::total             60011                       # Number of write requests responded to by this memory
system.mem_ctrls1.bw_read::ruby.dir_cntrl1    231855857                       # Total read bandwidth from this memory (bytes/s)
system.mem_ctrls1.bw_read::total            231855857                       # Total read bandwidth from this memory (bytes/s)
system.mem_ctrls1.bw_write::ruby.dir_cntrl1     64289419                       # Write bandwidth from this memory (bytes/s)
system.mem_ctrls1.bw_write::total            64289419                       # Write bandwidth from this memory (bytes/s)
system.mem_ctrls1.bw_total::ruby.dir_cntrl1    296145276                       # Total bandwidth to/from this memory (bytes/s)
system.mem_ctrls1.bw_total::total           296145276                       # Total bandwidth to/from this memory (bytes/s)
system.mem_ctrls1.readReqs                     216426                       # Number of read requests accepted
system.mem_ctrls1.writeReqs                     60011                       # Number of write requests accepted
system.mem_ctrls1.readBursts                   216426                       # Number of DRAM read bursts, including those serviced by the write queue
system.mem_ctrls1.writeBursts                   60011                       # Number of DRAM write bursts, including those merged in the write queue
system.mem_ctrls1.bytesReadDRAM              13849664                       # Total number of bytes read from DRAM
system.mem_ctrls1.bytesReadWrQ                   1600                       # Total number of bytes read from write queue
system.mem_ctrls1.bytesWritten                3840640                       # Total number of bytes written to DRAM
system.mem_ctrls1.bytesReadSys               13851264                       # Total read bytes from the system interface side
system.mem_ctrls1.bytesWrittenSys             3840704                       # Total written bytes from the system interface side
system.mem_ctrls1.servicedByWrQ                    25                       # Number of DRAM read bursts serviced by the write queue
system.mem_ctrls1.mergedWrBursts                    0                       # Number of DRAM write bursts merged with an existing one
system.mem_ctrls1.neitherReadNorWriteReqs            0                       # Number of requests that are neither read nor write
system.mem_ctrls1.perBankRdBursts::0            13290                       # Per bank write bursts
system.mem_ctrls1.perBankRdBursts::1            13819                       # Per bank write bursts
system.mem_ctrls1.perBankRdBursts::2            13485                       # Per bank write bursts
system.mem_ctrls1.perBankRdBursts::3            13893                       # Per bank write bursts
system.mem_ctrls1.perBankRdBursts::4            13534                       # Per bank write bursts
system.mem_ctrls1.perBankRdBursts::5            14118                       # Per bank write bursts
system.mem_ctrls1.perBankRdBursts::6            13535                       # Per bank write bursts
system.mem_ctrls1.perBankRdBursts::7            13510                       # Per bank write bursts
system.mem_ctrls1.perBankRdBursts::8            13401                       # Per bank write bursts
system.mem_ctrls1.perBankRdBursts::9            13712                       # Per bank write bursts
system.mem_ctrls1.perBankRdBursts::10           13419                       # Per bank write bursts
system.mem_ctrls1.perBankRdBursts::11           13655                       # Per bank write bursts
system.mem_ctrls1.perBankRdBursts::12           13210                       # Per bank write bursts
system.mem_ctrls1.perBankRdBursts::13           13105                       # Per bank write bursts
system.mem_ctrls1.perBankRdBursts::14           13294                       # Per bank write bursts
system.mem_ctrls1.perBankRdBursts::15           13421                       # Per bank write bursts
system.mem_ctrls1.perBankWrBursts::0             3687                       # Per bank write bursts
system.mem_ctrls1.perBankWrBursts::1             3780                       # Per bank write bursts
system.mem_ctrls1.perBankWrBursts::2             3765                       # Per bank write bursts
system.mem_ctrls1.perBankWrBursts::3             3979                       # Per bank write bursts
system.mem_ctrls1.perBankWrBursts::4             3771                       # Per bank write bursts
system.mem_ctrls1.perBankWrBursts::5             3925                       # Per bank write bursts
system.mem_ctrls1.perBankWrBursts::6             3803                       # Per bank write bursts
system.mem_ctrls1.perBankWrBursts::7             3779                       # Per bank write bursts
system.mem_ctrls1.perBankWrBursts::8             3663                       # Per bank write bursts
system.mem_ctrls1.perBankWrBursts::9             3898                       # Per bank write bursts
system.mem_ctrls1.perBankWrBursts::10            3678                       # Per bank write bursts
system.mem_ctrls1.perBankWrBursts::11            3611                       # Per bank write bursts
system.mem_ctrls1.perBankWrBursts::12            3566                       # Per bank write bursts
system.mem_ctrls1.perBankWrBursts::13            3595                       # Per bank write bursts
system.mem_ctrls1.perBankWrBursts::14            3794                       # Per bank write bursts
system.mem_ctrls1.perBankWrBursts::15            3716                       # Per bank write bursts
system.mem_ctrls1.numRdRetry                      542                       # Number of times read queue was full causing retry
system.mem_ctrls1.numWrRetry                      328                       # Number of times write queue was full causing retry
system.mem_ctrls1.totGap                  59740091000                       # Total gap between requests
system.mem_ctrls1.readPktSize::0                    0                       # Read request sizes (log2)
system.mem_ctrls1.readPktSize::1                    0                       # Read request sizes (log2)
system.mem_ctrls1.readPktSize::2                    0                       # Read request sizes (log2)
system.mem_ctrls1.readPktSize::3                    0                       # Read request sizes (log2)
system.mem_ctrls1.readPktSize::4                    0                       # Read request sizes (log2)
system.mem_ctrls1.readPktSize::5                    0                       # Read request sizes (log2)
system.mem_ctrls1.readPktSize::6               216426                       # Read request sizes (log2)
system.mem_ctrls1.writePktSize::0                   0                       # Write request sizes (log2)
system.mem_ctrls1.writePktSize::1                   0                       # Write request sizes (log2)
system.mem_ctrls1.writePktSize::2                   0                       # Write request sizes (log2)
system.mem_ctrls1.writePktSize::3                   0                       # Write request sizes (log2)
system.mem_ctrls1.writePktSize::4                   0                       # Write request sizes (log2)
system.mem_ctrls1.writePktSize::5                   0                       # Write request sizes (log2)
system.mem_ctrls1.writePktSize::6               60011                       # Write request sizes (log2)
system.mem_ctrls1.rdQLenPdf::0                 158472                       # What read queue length does an incoming req see
system.mem_ctrls1.rdQLenPdf::1                  42820                       # What read queue length does an incoming req see
system.mem_ctrls1.rdQLenPdf::2                  10745                       # What read queue length does an incoming req see
system.mem_ctrls1.rdQLenPdf::3                   2232                       # What read queue length does an incoming req see
system.mem_ctrls1.rdQLenPdf::4                    501                       # What read queue length does an incoming req see
system.mem_ctrls1.rdQLenPdf::5                    157                       # What read queue length does an incoming req see
system.mem_ctrls1.rdQLenPdf::6                     78                       # What read queue length does an incoming req see
system.mem_ctrls1.rdQLenPdf::7                     74                       # What read queue length does an incoming req see
system.mem_ctrls1.rdQLenPdf::8                     61                       # What read queue length does an incoming req see
system.mem_ctrls1.rdQLenPdf::9                     58                       # What read queue length does an incoming req see
system.mem_ctrls1.rdQLenPdf::10                    52                       # What read queue length does an incoming req see
system.mem_ctrls1.rdQLenPdf::11                    47                       # What read queue length does an incoming req see
system.mem_ctrls1.rdQLenPdf::12                    39                       # What read queue length does an incoming req see
system.mem_ctrls1.rdQLenPdf::13                    48                       # What read queue length does an incoming req see
system.mem_ctrls1.rdQLenPdf::14                    43                       # What read queue length does an incoming req see
system.mem_ctrls1.rdQLenPdf::15                    40                       # What read queue length does an incoming req see
system.mem_ctrls1.rdQLenPdf::16                    29                       # What read queue length does an incoming req see
system.mem_ctrls1.rdQLenPdf::17                    28                       # What read queue length does an incoming req see
system.mem_ctrls1.rdQLenPdf::18                    23                       # What read queue length does an incoming req see
system.mem_ctrls1.rdQLenPdf::19                    27                       # What read queue length does an incoming req see
system.mem_ctrls1.rdQLenPdf::20                    29                       # What read queue length does an incoming req see
system.mem_ctrls1.rdQLenPdf::21                    30                       # What read queue length does an incoming req see
system.mem_ctrls1.rdQLenPdf::22                    27                       # What read queue length does an incoming req see
system.mem_ctrls1.rdQLenPdf::23                    20                       # What read queue length does an incoming req see
system.mem_ctrls1.rdQLenPdf::24                    21                       # What read queue length does an incoming req see
system.mem_ctrls1.rdQLenPdf::25                    21                       # What read queue length does an incoming req see
system.mem_ctrls1.rdQLenPdf::26                    18                       # What read queue length does an incoming req see
system.mem_ctrls1.rdQLenPdf::27                    16                       # What read queue length does an incoming req see
system.mem_ctrls1.rdQLenPdf::28                    13                       # What read queue length does an incoming req see
system.mem_ctrls1.rdQLenPdf::29                    17                       # What read queue length does an incoming req see
system.mem_ctrls1.rdQLenPdf::30                    19                       # What read queue length does an incoming req see
system.mem_ctrls1.rdQLenPdf::31                   596                       # What read queue length does an incoming req see
system.mem_ctrls1.wrQLenPdf::0                  11680                       # What write queue length does an incoming req see
system.mem_ctrls1.wrQLenPdf::1                  11871                       # What write queue length does an incoming req see
system.mem_ctrls1.wrQLenPdf::2                  11873                       # What write queue length does an incoming req see
system.mem_ctrls1.wrQLenPdf::3                  11838                       # What write queue length does an incoming req see
system.mem_ctrls1.wrQLenPdf::4                  11811                       # What write queue length does an incoming req see
system.mem_ctrls1.wrQLenPdf::5                    214                       # What write queue length does an incoming req see
system.mem_ctrls1.wrQLenPdf::6                    189                       # What write queue length does an incoming req see
system.mem_ctrls1.wrQLenPdf::7                    535                       # What write queue length does an incoming req see
system.mem_ctrls1.bytesPerActivate::samples        80921                       # Bytes accessed per row activation
system.mem_ctrls1.bytesPerActivate::mean   218.600166                       # Bytes accessed per row activation
system.mem_ctrls1.bytesPerActivate::gmean   140.011053                       # Bytes accessed per row activation
system.mem_ctrls1.bytesPerActivate::stdev   245.567373                       # Bytes accessed per row activation
system.mem_ctrls1.bytesPerActivate::0-127        38028     46.99%     46.99% # Bytes accessed per row activation
system.mem_ctrls1.bytesPerActivate::128-255        16994     21.00%     67.99% # Bytes accessed per row activation
system.mem_ctrls1.bytesPerActivate::256-383        14411     17.81%     85.80% # Bytes accessed per row activation
system.mem_ctrls1.bytesPerActivate::384-511         2586      3.20%     89.00% # Bytes accessed per row activation
system.mem_ctrls1.bytesPerActivate::512-639         1879      2.32%     91.32% # Bytes accessed per row activation
system.mem_ctrls1.bytesPerActivate::640-767         1327      1.64%     92.96% # Bytes accessed per row activation
system.mem_ctrls1.bytesPerActivate::768-895         1101      1.36%     94.32% # Bytes accessed per row activation
system.mem_ctrls1.bytesPerActivate::896-1023         1004      1.24%     95.56% # Bytes accessed per row activation
system.mem_ctrls1.bytesPerActivate::1024-1151         3591      4.44%    100.00% # Bytes accessed per row activation
system.mem_ctrls1.bytesPerActivate::total        80921                       # Bytes accessed per row activation
system.mem_ctrls1.rdPerTurnAround::samples        11720                       # Reads before turning the bus around for writes
system.mem_ctrls1.rdPerTurnAround::mean     18.411860                       # Reads before turning the bus around for writes
system.mem_ctrls1.rdPerTurnAround::stdev    76.757969                       # Reads before turning the bus around for writes
system.mem_ctrls1.rdPerTurnAround::0-127        11365     96.97%     96.97% # Reads before turning the bus around for writes
system.mem_ctrls1.rdPerTurnAround::128-255          172      1.47%     98.44% # Reads before turning the bus around for writes
system.mem_ctrls1.rdPerTurnAround::256-383           83      0.71%     99.15% # Reads before turning the bus around for writes
system.mem_ctrls1.rdPerTurnAround::384-511           46      0.39%     99.54% # Reads before turning the bus around for writes
system.mem_ctrls1.rdPerTurnAround::512-639           29      0.25%     99.79% # Reads before turning the bus around for writes
system.mem_ctrls1.rdPerTurnAround::640-767           10      0.09%     99.87% # Reads before turning the bus around for writes
system.mem_ctrls1.rdPerTurnAround::768-895            3      0.03%     99.90% # Reads before turning the bus around for writes
system.mem_ctrls1.rdPerTurnAround::896-1023            3      0.03%     99.92% # Reads before turning the bus around for writes
system.mem_ctrls1.rdPerTurnAround::1152-1279            1      0.01%     99.93% # Reads before turning the bus around for writes
system.mem_ctrls1.rdPerTurnAround::1280-1407            1      0.01%     99.94% # Reads before turning the bus around for writes
system.mem_ctrls1.rdPerTurnAround::1408-1535            2      0.02%     99.96% # Reads before turning the bus around for writes
system.mem_ctrls1.rdPerTurnAround::1536-1663            2      0.02%     99.97% # Reads before turning the bus around for writes
system.mem_ctrls1.rdPerTurnAround::1792-1919            1      0.01%     99.98% # Reads before turning the bus around for writes
system.mem_ctrls1.rdPerTurnAround::1920-2047            1      0.01%     99.99% # Reads before turning the bus around for writes
system.mem_ctrls1.rdPerTurnAround::2816-2943            1      0.01%    100.00% # Reads before turning the bus around for writes
system.mem_ctrls1.rdPerTurnAround::total        11720                       # Reads before turning the bus around for writes
system.mem_ctrls1.wrPerTurnAround::samples        11720                       # Writes before turning the bus around for reads
system.mem_ctrls1.wrPerTurnAround::mean      5.120307                       # Writes before turning the bus around for reads
system.mem_ctrls1.wrPerTurnAround::gmean     5.081488                       # Writes before turning the bus around for reads
system.mem_ctrls1.wrPerTurnAround::stdev     0.901515                       # Writes before turning the bus around for reads
system.mem_ctrls1.wrPerTurnAround::4-7          11597     98.95%     98.95% # Writes before turning the bus around for reads
system.mem_ctrls1.wrPerTurnAround::8-11            47      0.40%     99.35% # Writes before turning the bus around for reads
system.mem_ctrls1.wrPerTurnAround::12-15           20      0.17%     99.52% # Writes before turning the bus around for reads
system.mem_ctrls1.wrPerTurnAround::16-19           56      0.48%    100.00% # Writes before turning the bus around for reads
system.mem_ctrls1.wrPerTurnAround::total        11720                       # Writes before turning the bus around for reads
system.mem_ctrls1.totQLat                  2864048763                       # Total ticks spent queuing
system.mem_ctrls1.totMemAccLat             6921567513                       # Total ticks spent from burst creation until serviced by the DRAM
system.mem_ctrls1.totBusLat                1082005000                       # Total ticks spent in databus transfers
system.mem_ctrls1.avgQLat                    13234.91                       # Average queueing delay per DRAM burst
system.mem_ctrls1.avgBusLat                   5000.00                       # Average bus latency per DRAM burst
system.mem_ctrls1.avgMemAccLat               31984.91                       # Average memory access latency per DRAM burst
system.mem_ctrls1.avgRdBW                      231.83                       # Average DRAM read bandwidth in MiByte/s
system.mem_ctrls1.avgWrBW                       64.29                       # Average achieved write bandwidth in MiByte/s
system.mem_ctrls1.avgRdBWSys                   231.86                       # Average system read bandwidth in MiByte/s
system.mem_ctrls1.avgWrBWSys                    64.29                       # Average system write bandwidth in MiByte/s
system.mem_ctrls1.peakBW                     12800.00                       # Theoretical peak bandwidth in MiByte/s
system.mem_ctrls1.busUtil                        2.31                       # Data bus utilization in percentage
system.mem_ctrls1.busUtilRead                    1.81                       # Data bus utilization in percentage for reads
system.mem_ctrls1.busUtilWrite                   0.50                       # Data bus utilization in percentage for writes
system.mem_ctrls1.avgRdQLen                      1.10                       # Average read queue length when enqueuing
system.mem_ctrls1.avgWrQLen                      2.91                       # Average write queue length when enqueuing
system.mem_ctrls1.readRowHits                  156548                       # Number of row buffer hits during reads
system.mem_ctrls1.writeRowHits                  38935                       # Number of row buffer hits during writes
system.mem_ctrls1.readRowHitRate                72.34                       # Row buffer hit rate for reads
system.mem_ctrls1.writeRowHitRate               64.88                       # Row buffer hit rate for writes
system.mem_ctrls1.avgGap                    216107.43                       # Average gap between requests
system.mem_ctrls1.pageHitRate                   70.72                       # Row buffer hit rate, read and write combined
system.mem_ctrls1.memoryStateTime::IDLE   11235413500                       # Time in different power states
system.mem_ctrls1.memoryStateTime::REF     1994720000                       # Time in different power states
system.mem_ctrls1.memoryStateTime::PRE_PDN            0                       # Time in different power states
system.mem_ctrls1.memoryStateTime::ACT    46506465500                       # Time in different power states
system.mem_ctrls1.memoryStateTime::ACT_PDN            0                       # Time in different power states
system.mem_ctrls1.actEnergy::0              311585400                       # Energy for activate commands per rank (pJ)
system.mem_ctrls1.actEnergy::1              300177360                       # Energy for activate commands per rank (pJ)
system.mem_ctrls1.preEnergy::0              170011875                       # Energy for precharge commands per rank (pJ)
system.mem_ctrls1.preEnergy::1              163787250                       # Energy for precharge commands per rank (pJ)
system.mem_ctrls1.readEnergy::0             851557200                       # Energy for read commands per rank (pJ)
system.mem_ctrls1.readEnergy::1             836253600                       # Energy for read commands per rank (pJ)
system.mem_ctrls1.writeEnergy::0            197568720                       # Energy for write commands per rank (pJ)
system.mem_ctrls1.writeEnergy::1            191296080                       # Energy for write commands per rank (pJ)
system.mem_ctrls1.refreshEnergy::0         3901672320                       # Energy for refresh commands per rank (pJ)
system.mem_ctrls1.refreshEnergy::1         3901672320                       # Energy for refresh commands per rank (pJ)
system.mem_ctrls1.actBackEnergy::0        25300688895                       # Energy for active background per rank (pJ)
system.mem_ctrls1.actBackEnergy::1        24340394790                       # Energy for active background per rank (pJ)
system.mem_ctrls1.preBackEnergy::0        13648235250                       # Energy for precharge background per rank (pJ)
system.mem_ctrls1.preBackEnergy::1        14490598500                       # Energy for precharge background per rank (pJ)
system.mem_ctrls1.totalEnergy::0          44381319660                       # Total energy per rank (pJ)
system.mem_ctrls1.totalEnergy::1          44224179900                       # Total energy per rank (pJ)
system.mem_ctrls1.averagePower::0          742.953073                       # Core power per rank (mW)
system.mem_ctrls1.averagePower::1          740.322519                       # Core power per rank (mW)
system.mem_ctrls2.bytes_read::ruby.dir_cntrl2     13851776                       # Number of bytes read from this memory
system.mem_ctrls2.bytes_read::total          13851776                       # Number of bytes read from this memory
system.mem_ctrls2.bytes_written::ruby.dir_cntrl2      3841920                       # Number of bytes written to this memory
system.mem_ctrls2.bytes_written::total        3841920                       # Number of bytes written to this memory
system.mem_ctrls2.num_reads::ruby.dir_cntrl2       216434                       # Number of read requests responded to by this memory
system.mem_ctrls2.num_reads::total             216434                       # Number of read requests responded to by this memory
system.mem_ctrls2.num_writes::ruby.dir_cntrl2        60030                       # Number of write requests responded to by this memory
system.mem_ctrls2.num_writes::total             60030                       # Number of write requests responded to by this memory
system.mem_ctrls2.bw_read::ruby.dir_cntrl2    231864427                       # Total read bandwidth from this memory (bytes/s)
system.mem_ctrls2.bw_read::total            231864427                       # Total read bandwidth from this memory (bytes/s)
system.mem_ctrls2.bw_write::ruby.dir_cntrl2     64309774                       # Write bandwidth from this memory (bytes/s)
system.mem_ctrls2.bw_write::total            64309774                       # Write bandwidth from this memory (bytes/s)
system.mem_ctrls2.bw_total::ruby.dir_cntrl2    296174201                       # Total bandwidth to/from this memory (bytes/s)
system.mem_ctrls2.bw_total::total           296174201                       # Total bandwidth to/from this memory (bytes/s)
system.mem_ctrls2.readReqs                     216434                       # Number of read requests accepted
system.mem_ctrls2.writeReqs                     60030                       # Number of write requests accepted
system.mem_ctrls2.readBursts                   216434                       # Number of DRAM read bursts, including those serviced by the write queue
system.mem_ctrls2.writeBursts                   60030                       # Number of DRAM write bursts, including those merged in the write queue
system.mem_ctrls2.bytesReadDRAM              13850944                       # Total number of bytes read from DRAM
system.mem_ctrls2.bytesReadWrQ                    832                       # Total number of bytes read from write queue
system.mem_ctrls2.bytesWritten                3841728                       # Total number of bytes written to DRAM
system.mem_ctrls2.bytesReadSys               13851776                       # Total read bytes from the system interface side
system.mem_ctrls2.bytesWrittenSys             3841920                       # Total written bytes from the system interface side
system.mem_ctrls2.servicedByWrQ                    13                       # Number of DRAM read bursts serviced by the write queue
system.mem_ctrls2.mergedWrBursts                    0                       # Number of DRAM write bursts merged with an existing one
system.mem_ctrls2.neitherReadNorWriteReqs            0                       # Number of requests that are neither read nor write
system.mem_ctrls2.perBankRdBursts::0            13291                       # Per bank write bursts
system.mem_ctrls2.perBankRdBursts::1            13833                       # Per bank write bursts
system.mem_ctrls2.perBankRdBursts::2            13508                       # Per bank write bursts
system.mem_ctrls2.perBankRdBursts::3            13918                       # Per bank write bursts
system.mem_ctrls2.perBankRdBursts::4            13546                       # Per bank write bursts
system.mem_ctrls2.perBankRdBursts::5            14107                       # Per bank write bursts
system.mem_ctrls2.perBankRdBursts::6            13494                       # Per bank write bursts
system.mem_ctrls2.perBankRdBursts::7            13499                       # Per bank write bursts
system.mem_ctrls2.perBankRdBursts::8            13395                       # Per bank write bursts
system.mem_ctrls2.perBankRdBursts::9            13711                       # Per bank write bursts
system.mem_ctrls2.perBankRdBursts::10           13425                       # Per bank write bursts
system.mem_ctrls2.perBankRdBursts::11           13701                       # Per bank write bursts
system.mem_ctrls2.perBankRdBursts::12           13205                       # Per bank write bursts
system.mem_ctrls2.perBankRdBursts::13           13068                       # Per bank write bursts
system.mem_ctrls2.perBankRdBursts::14           13299                       # Per bank write bursts
system.mem_ctrls2.perBankRdBursts::15           13421                       # Per bank write bursts
system.mem_ctrls2.perBankWrBursts::0             3680                       # Per bank write bursts
system.mem_ctrls2.perBankWrBursts::1             3777                       # Per bank write bursts
system.mem_ctrls2.perBankWrBursts::2             3762                       # Per bank write bursts
system.mem_ctrls2.perBankWrBursts::3             3992                       # Per bank write bursts
system.mem_ctrls2.perBankWrBursts::4             3770                       # Per bank write bursts
system.mem_ctrls2.perBankWrBursts::5             3914                       # Per bank write bursts
system.mem_ctrls2.perBankWrBursts::6             3812                       # Per bank write bursts
system.mem_ctrls2.perBankWrBursts::7             3786                       # Per bank write bursts
system.mem_ctrls2.perBankWrBursts::8             3665                       # Per bank write bursts
system.mem_ctrls2.perBankWrBursts::9             3906                       # Per bank write bursts
system.mem_ctrls2.perBankWrBursts::10            3673                       # Per bank write bursts
system.mem_ctrls2.perBankWrBursts::11            3608                       # Per bank write bursts
system.mem_ctrls2.perBankWrBursts::12            3575                       # Per bank write bursts
system.mem_ctrls2.perBankWrBursts::13            3589                       # Per bank write bursts
system.mem_ctrls2.perBankWrBursts::14            3799                       # Per bank write bursts
system.mem_ctrls2.perBankWrBursts::15            3719                       # Per bank write bursts
system.mem_ctrls2.numRdRetry                      484                       # Number of times read queue was full causing retry
system.mem_ctrls2.numWrRetry                      298                       # Number of times write queue was full causing retry
system.mem_ctrls2.totGap                  59740138000                       # Total gap between requests
system.mem_ctrls2.readPktSize::0                    0                       # Read request sizes (log2)
system.mem_ctrls2.readPktSize::1                    0                       # Read request sizes (log2)
system.mem_ctrls2.readPktSize::2                    0                       # Read request sizes (log2)
system.mem_ctrls2.readPktSize::3                    0                       # Read request sizes (log2)
system.mem_ctrls2.readPktSize::4                    0                       # Read request sizes (log2)
system.mem_ctrls2.readPktSize::5                    0                       # Read request sizes (log2)
system.mem_ctrls2.readPktSize::6               216434                       # Read request sizes (log2)
system.mem_ctrls2.writePktSize::0                   0                       # Write request sizes (log2)
system.mem_ctrls2.writePktSize::1                   0                       # Write request sizes (log2)
system.mem_ctrls2.writePktSize::2                   0                       # Write request sizes (log2)
system.mem_ctrls2.writePktSize::3                   0                       # Write request sizes (log2)
system.mem_ctrls2.writePktSize::4                   0                       # Write request sizes (log2)
system.mem_ctrls2.writePktSize::5                   0                       # Write request sizes (log2)
system.mem_ctrls2.writePktSize::6               60030                       # Write request sizes (log2)
system.mem_ctrls2.rdQLenPdf::0                 158713                       # What read queue length does an incoming req see
system.mem_ctrls2.rdQLenPdf::1                  42655                       # What read queue length does an incoming req see
system.mem_ctrls2.rdQLenPdf::2                  10674                       # What read queue length does an incoming req see
system.mem_ctrls2.rdQLenPdf::3                   2270                       # What read queue length does an incoming req see
system.mem_ctrls2.rdQLenPdf::4                    482                       # What read queue length does an incoming req see
system.mem_ctrls2.rdQLenPdf::5                    150                       # What read queue length does an incoming req see
system.mem_ctrls2.rdQLenPdf::6                     95                       # What read queue length does an incoming req see
system.mem_ctrls2.rdQLenPdf::7                     67                       # What read queue length does an incoming req see
system.mem_ctrls2.rdQLenPdf::8                     67                       # What read queue length does an incoming req see
system.mem_ctrls2.rdQLenPdf::9                     73                       # What read queue length does an incoming req see
system.mem_ctrls2.rdQLenPdf::10                    51                       # What read queue length does an incoming req see
system.mem_ctrls2.rdQLenPdf::11                    47                       # What read queue length does an incoming req see
system.mem_ctrls2.rdQLenPdf::12                    44                       # What read queue length does an incoming req see
system.mem_ctrls2.rdQLenPdf::13                    34                       # What read queue length does an incoming req see
system.mem_ctrls2.rdQLenPdf::14                    36                       # What read queue length does an incoming req see
system.mem_ctrls2.rdQLenPdf::15                    33                       # What read queue length does an incoming req see
system.mem_ctrls2.rdQLenPdf::16                    17                       # What read queue length does an incoming req see
system.mem_ctrls2.rdQLenPdf::17                    27                       # What read queue length does an incoming req see
system.mem_ctrls2.rdQLenPdf::18                    29                       # What read queue length does an incoming req see
system.mem_ctrls2.rdQLenPdf::19                    31                       # What read queue length does an incoming req see
system.mem_ctrls2.rdQLenPdf::20                    31                       # What read queue length does an incoming req see
system.mem_ctrls2.rdQLenPdf::21                    31                       # What read queue length does an incoming req see
system.mem_ctrls2.rdQLenPdf::22                    31                       # What read queue length does an incoming req see
system.mem_ctrls2.rdQLenPdf::23                    18                       # What read queue length does an incoming req see
system.mem_ctrls2.rdQLenPdf::24                    22                       # What read queue length does an incoming req see
system.mem_ctrls2.rdQLenPdf::25                    27                       # What read queue length does an incoming req see
system.mem_ctrls2.rdQLenPdf::26                    25                       # What read queue length does an incoming req see
system.mem_ctrls2.rdQLenPdf::27                    31                       # What read queue length does an incoming req see
system.mem_ctrls2.rdQLenPdf::28                    23                       # What read queue length does an incoming req see
system.mem_ctrls2.rdQLenPdf::29                    30                       # What read queue length does an incoming req see
system.mem_ctrls2.rdQLenPdf::30                    25                       # What read queue length does an incoming req see
system.mem_ctrls2.rdQLenPdf::31                   532                       # What read queue length does an incoming req see
system.mem_ctrls2.wrQLenPdf::0                  11695                       # What write queue length does an incoming req see
system.mem_ctrls2.wrQLenPdf::1                  11861                       # What write queue length does an incoming req see
system.mem_ctrls2.wrQLenPdf::2                  11872                       # What write queue length does an incoming req see
system.mem_ctrls2.wrQLenPdf::3                  11847                       # What write queue length does an incoming req see
system.mem_ctrls2.wrQLenPdf::4                  11839                       # What write queue length does an incoming req see
system.mem_ctrls2.wrQLenPdf::5                    240                       # What write queue length does an incoming req see
system.mem_ctrls2.wrQLenPdf::6                    183                       # What write queue length does an incoming req see
system.mem_ctrls2.wrQLenPdf::7                    493                       # What write queue length does an incoming req see
system.mem_ctrls2.bytesPerActivate::samples        80999                       # Bytes accessed per row activation
system.mem_ctrls2.bytesPerActivate::mean   218.420474                       # Bytes accessed per row activation
system.mem_ctrls2.bytesPerActivate::gmean   139.769521                       # Bytes accessed per row activation
system.mem_ctrls2.bytesPerActivate::stdev   245.589362                       # Bytes accessed per row activation
system.mem_ctrls2.bytesPerActivate::0-127        38265     47.24%     47.24% # Bytes accessed per row activation
system.mem_ctrls2.bytesPerActivate::128-255        16632     20.53%     67.77% # Bytes accessed per row activation
system.mem_ctrls2.bytesPerActivate::256-383        14603     18.03%     85.80% # Bytes accessed per row activation
system.mem_ctrls2.bytesPerActivate::384-511         2576      3.18%     88.98% # Bytes accessed per row activation
system.mem_ctrls2.bytesPerActivate::512-639         1878      2.32%     91.30% # Bytes accessed per row activation
system.mem_ctrls2.bytesPerActivate::640-767         1330      1.64%     92.94% # Bytes accessed per row activation
system.mem_ctrls2.bytesPerActivate::768-895         1135      1.40%     94.35% # Bytes accessed per row activation
system.mem_ctrls2.bytesPerActivate::896-1023          989      1.22%     95.57% # Bytes accessed per row activation
system.mem_ctrls2.bytesPerActivate::1024-1151         3591      4.43%    100.00% # Bytes accessed per row activation
system.mem_ctrls2.bytesPerActivate::total        80999                       # Bytes accessed per row activation
system.mem_ctrls2.rdPerTurnAround::samples        11729                       # Reads before turning the bus around for writes
system.mem_ctrls2.rdPerTurnAround::mean     18.395345                       # Reads before turning the bus around for writes
system.mem_ctrls2.rdPerTurnAround::stdev    76.667328                       # Reads before turning the bus around for writes
system.mem_ctrls2.rdPerTurnAround::0-127        11370     96.94%     96.94% # Reads before turning the bus around for writes
system.mem_ctrls2.rdPerTurnAround::128-255          175      1.49%     98.43% # Reads before turning the bus around for writes
system.mem_ctrls2.rdPerTurnAround::256-383           89      0.76%     99.19% # Reads before turning the bus around for writes
system.mem_ctrls2.rdPerTurnAround::384-511           41      0.35%     99.54% # Reads before turning the bus around for writes
system.mem_ctrls2.rdPerTurnAround::512-639           29      0.25%     99.79% # Reads before turning the bus around for writes
system.mem_ctrls2.rdPerTurnAround::640-767           10      0.09%     99.87% # Reads before turning the bus around for writes
system.mem_ctrls2.rdPerTurnAround::768-895            3      0.03%     99.90% # Reads before turning the bus around for writes
system.mem_ctrls2.rdPerTurnAround::896-1023            2      0.02%     99.91% # Reads before turning the bus around for writes
system.mem_ctrls2.rdPerTurnAround::1152-1279            1      0.01%     99.92% # Reads before turning the bus around for writes
system.mem_ctrls2.rdPerTurnAround::1280-1407            3      0.03%     99.95% # Reads before turning the bus around for writes
system.mem_ctrls2.rdPerTurnAround::1536-1663            2      0.02%     99.97% # Reads before turning the bus around for writes
system.mem_ctrls2.rdPerTurnAround::1664-1791            2      0.02%     99.98% # Reads before turning the bus around for writes
system.mem_ctrls2.rdPerTurnAround::1792-1919            1      0.01%     99.99% # Reads before turning the bus around for writes
system.mem_ctrls2.rdPerTurnAround::2816-2943            1      0.01%    100.00% # Reads before turning the bus around for writes
system.mem_ctrls2.rdPerTurnAround::total        11729                       # Reads before turning the bus around for writes
system.mem_ctrls2.wrPerTurnAround::samples        11729                       # Writes before turning the bus around for reads
system.mem_ctrls2.wrPerTurnAround::mean      5.117828                       # Writes before turning the bus around for reads
system.mem_ctrls2.wrPerTurnAround::gmean     5.080989                       # Writes before turning the bus around for reads
system.mem_ctrls2.wrPerTurnAround::stdev     0.870404                       # Writes before turning the bus around for reads
system.mem_ctrls2.wrPerTurnAround::4-7          11596     98.87%     98.87% # Writes before turning the bus around for reads
system.mem_ctrls2.wrPerTurnAround::8-11            62      0.53%     99.39% # Writes before turning the bus around for reads
system.mem_ctrls2.wrPerTurnAround::12-15           22      0.19%     99.58% # Writes before turning the bus around for reads
system.mem_ctrls2.wrPerTurnAround::16-19           49      0.42%    100.00% # Writes before turning the bus around for reads
system.mem_ctrls2.wrPerTurnAround::total        11729                       # Writes before turning the bus around for reads
system.mem_ctrls2.totQLat                  2869073590                       # Total ticks spent queuing
system.mem_ctrls2.totMemAccLat             6926967340                       # Total ticks spent from burst creation until serviced by the DRAM
system.mem_ctrls2.totBusLat                1082105000                       # Total ticks spent in databus transfers
system.mem_ctrls2.avgQLat                    13256.91                       # Average queueing delay per DRAM burst
system.mem_ctrls2.avgBusLat                   5000.00                       # Average bus latency per DRAM burst
system.mem_ctrls2.avgMemAccLat               32006.91                       # Average memory access latency per DRAM burst
system.mem_ctrls2.avgRdBW                      231.85                       # Average DRAM read bandwidth in MiByte/s
system.mem_ctrls2.avgWrBW                       64.31                       # Average achieved write bandwidth in MiByte/s
system.mem_ctrls2.avgRdBWSys                   231.86                       # Average system read bandwidth in MiByte/s
system.mem_ctrls2.avgWrBWSys                    64.31                       # Average system write bandwidth in MiByte/s
system.mem_ctrls2.peakBW                     12800.00                       # Theoretical peak bandwidth in MiByte/s
system.mem_ctrls2.busUtil                        2.31                       # Data bus utilization in percentage
system.mem_ctrls2.busUtilRead                    1.81                       # Data bus utilization in percentage for reads
system.mem_ctrls2.busUtilWrite                   0.50                       # Data bus utilization in percentage for writes
system.mem_ctrls2.avgRdQLen                      1.10                       # Average read queue length when enqueuing
system.mem_ctrls2.avgWrQLen                      2.98                       # Average write queue length when enqueuing
system.mem_ctrls2.readRowHits                  156523                       # Number of row buffer hits during reads
system.mem_ctrls2.writeRowHits                  38918                       # Number of row buffer hits during writes
system.mem_ctrls2.readRowHitRate                72.32                       # Row buffer hit rate for reads
system.mem_ctrls2.writeRowHitRate               64.83                       # Row buffer hit rate for writes
system.mem_ctrls2.avgGap                    216086.50                       # Average gap between requests
system.mem_ctrls2.pageHitRate                   70.70                       # Row buffer hit rate, read and write combined
system.mem_ctrls2.memoryStateTime::IDLE   11130686500                       # Time in different power states
system.mem_ctrls2.memoryStateTime::REF     1994720000                       # Time in different power states
system.mem_ctrls2.memoryStateTime::PRE_PDN            0                       # Time in different power states
system.mem_ctrls2.memoryStateTime::ACT    46611295500                       # Time in different power states
system.mem_ctrls2.memoryStateTime::ACT_PDN            0                       # Time in different power states
system.mem_ctrls2.actEnergy::0              312235560                       # Energy for activate commands per rank (pJ)
system.mem_ctrls2.actEnergy::1              300109320                       # Energy for activate commands per rank (pJ)
system.mem_ctrls2.preEnergy::0              170366625                       # Energy for precharge commands per rank (pJ)
system.mem_ctrls2.preEnergy::1              163750125                       # Energy for precharge commands per rank (pJ)
system.mem_ctrls2.readEnergy::0             851658600                       # Energy for read commands per rank (pJ)
system.mem_ctrls2.readEnergy::1             836316000                       # Energy for read commands per rank (pJ)
system.mem_ctrls2.writeEnergy::0            197594640                       # Energy for write commands per rank (pJ)
system.mem_ctrls2.writeEnergy::1            191380320                       # Energy for write commands per rank (pJ)
system.mem_ctrls2.refreshEnergy::0         3901672320                       # Energy for refresh commands per rank (pJ)
system.mem_ctrls2.refreshEnergy::1         3901672320                       # Energy for refresh commands per rank (pJ)
system.mem_ctrls2.actBackEnergy::0        25280541675                       # Energy for active background per rank (pJ)
system.mem_ctrls2.actBackEnergy::1        24493420980                       # Energy for active background per rank (pJ)
system.mem_ctrls2.preBackEnergy::0        13665908250                       # Energy for precharge background per rank (pJ)
system.mem_ctrls2.preBackEnergy::1        14356365000                       # Energy for precharge background per rank (pJ)
system.mem_ctrls2.totalEnergy::0          44379977670                       # Total energy per rank (pJ)
system.mem_ctrls2.totalEnergy::1          44243014065                       # Total energy per rank (pJ)
system.mem_ctrls2.averagePower::0          742.930608                       # Core power per rank (mW)
system.mem_ctrls2.averagePower::1          740.637807                       # Core power per rank (mW)
system.mem_ctrls3.bytes_read::ruby.dir_cntrl3     13836992                       # Number of bytes read from this memory
system.mem_ctrls3.bytes_read::total          13836992                       # Number of bytes read from this memory
system.mem_ctrls3.bytes_written::ruby.dir_cntrl3      3838464                       # Number of bytes written to this memory
system.mem_ctrls3.bytes_written::total        3838464                       # Number of bytes written to this memory
system.mem_ctrls3.num_reads::ruby.dir_cntrl3       216203                       # Number of read requests responded to by this memory
system.mem_ctrls3.num_reads::total             216203                       # Number of read requests responded to by this memory
system.mem_ctrls3.num_writes::ruby.dir_cntrl3        59976                       # Number of write requests responded to by this memory
system.mem_ctrls3.num_writes::total             59976                       # Number of write requests responded to by this memory
system.mem_ctrls3.bw_read::ruby.dir_cntrl3    231616958                       # Total read bandwidth from this memory (bytes/s)
system.mem_ctrls3.bw_read::total            231616958                       # Total read bandwidth from this memory (bytes/s)
system.mem_ctrls3.bw_write::ruby.dir_cntrl3     64251924                       # Write bandwidth from this memory (bytes/s)
system.mem_ctrls3.bw_write::total            64251924                       # Write bandwidth from this memory (bytes/s)
system.mem_ctrls3.bw_total::ruby.dir_cntrl3    295868882                       # Total bandwidth to/from this memory (bytes/s)
system.mem_ctrls3.bw_total::total           295868882                       # Total bandwidth to/from this memory (bytes/s)
system.mem_ctrls3.readReqs                     216204                       # Number of read requests accepted
system.mem_ctrls3.writeReqs                     59976                       # Number of write requests accepted
system.mem_ctrls3.readBursts                   216204                       # Number of DRAM read bursts, including those serviced by the write queue
system.mem_ctrls3.writeBursts                   59976                       # Number of DRAM write bursts, including those merged in the write queue
system.mem_ctrls3.bytesReadDRAM              13836288                       # Total number of bytes read from DRAM
system.mem_ctrls3.bytesReadWrQ                    768                       # Total number of bytes read from write queue
system.mem_ctrls3.bytesWritten                3838400                       # Total number of bytes written to DRAM
system.mem_ctrls3.bytesReadSys               13837056                       # Total read bytes from the system interface side
system.mem_ctrls3.bytesWrittenSys             3838464                       # Total written bytes from the system interface side
system.mem_ctrls3.servicedByWrQ                    12                       # Number of DRAM read bursts serviced by the write queue
system.mem_ctrls3.mergedWrBursts                    0                       # Number of DRAM write bursts merged with an existing one
system.mem_ctrls3.neitherReadNorWriteReqs            0                       # Number of requests that are neither read nor write
system.mem_ctrls3.perBankRdBursts::0            13270                       # Per bank write bursts
system.mem_ctrls3.perBankRdBursts::1            13824                       # Per bank write bursts
system.mem_ctrls3.perBankRdBursts::2            13450                       # Per bank write bursts
system.mem_ctrls3.perBankRdBursts::3            13898                       # Per bank write bursts
system.mem_ctrls3.perBankRdBursts::4            13490                       # Per bank write bursts
system.mem_ctrls3.perBankRdBursts::5            14084                       # Per bank write bursts
system.mem_ctrls3.perBankRdBursts::6            13510                       # Per bank write bursts
system.mem_ctrls3.perBankRdBursts::7            13491                       # Per bank write bursts
system.mem_ctrls3.perBankRdBursts::8            13398                       # Per bank write bursts
system.mem_ctrls3.perBankRdBursts::9            13703                       # Per bank write bursts
system.mem_ctrls3.perBankRdBursts::10           13441                       # Per bank write bursts
system.mem_ctrls3.perBankRdBursts::11           13659                       # Per bank write bursts
system.mem_ctrls3.perBankRdBursts::12           13200                       # Per bank write bursts
system.mem_ctrls3.perBankRdBursts::13           13061                       # Per bank write bursts
system.mem_ctrls3.perBankRdBursts::14           13312                       # Per bank write bursts
system.mem_ctrls3.perBankRdBursts::15           13401                       # Per bank write bursts
system.mem_ctrls3.perBankWrBursts::0             3686                       # Per bank write bursts
system.mem_ctrls3.perBankWrBursts::1             3769                       # Per bank write bursts
system.mem_ctrls3.perBankWrBursts::2             3752                       # Per bank write bursts
system.mem_ctrls3.perBankWrBursts::3             3975                       # Per bank write bursts
system.mem_ctrls3.perBankWrBursts::4             3768                       # Per bank write bursts
system.mem_ctrls3.perBankWrBursts::5             3909                       # Per bank write bursts
system.mem_ctrls3.perBankWrBursts::6             3808                       # Per bank write bursts
system.mem_ctrls3.perBankWrBursts::7             3773                       # Per bank write bursts
system.mem_ctrls3.perBankWrBursts::8             3662                       # Per bank write bursts
system.mem_ctrls3.perBankWrBursts::9             3908                       # Per bank write bursts
system.mem_ctrls3.perBankWrBursts::10            3672                       # Per bank write bursts
system.mem_ctrls3.perBankWrBursts::11            3622                       # Per bank write bursts
system.mem_ctrls3.perBankWrBursts::12            3573                       # Per bank write bursts
system.mem_ctrls3.perBankWrBursts::13            3595                       # Per bank write bursts
system.mem_ctrls3.perBankWrBursts::14            3795                       # Per bank write bursts
system.mem_ctrls3.perBankWrBursts::15            3708                       # Per bank write bursts
system.mem_ctrls3.numRdRetry                      487                       # Number of times read queue was full causing retry
system.mem_ctrls3.numWrRetry                      332                       # Number of times write queue was full causing retry
system.mem_ctrls3.totGap                  59740096500                       # Total gap between requests
system.mem_ctrls3.readPktSize::0                    0                       # Read request sizes (log2)
system.mem_ctrls3.readPktSize::1                    0                       # Read request sizes (log2)
system.mem_ctrls3.readPktSize::2                    0                       # Read request sizes (log2)
system.mem_ctrls3.readPktSize::3                    0                       # Read request sizes (log2)
system.mem_ctrls3.readPktSize::4                    0                       # Read request sizes (log2)
[...]
system.ruby.L2Cache_Controller.IS.Mem_Data::total        13540                      
system.ruby.L2Cache_Controller.IM.Mem_Data |        6009      3.16%      3.16% |        5933      3.12%      6.28% |        5941      3.12%      9.40% |        5950      3.13%     12.53% |        5949      3.13%     15.66% |        5945      3.13%     18.78% |        5940      3.12%     21.91% |        5927      3.12%     25.02% |        5949      3.13%     28.15% |        5944      3.13%     31.28% |        5929      3.12%     34.39% |        5949      3.13%     37.52% |        5939      3.12%     40.64% |        5934      3.12%     43.76% |        5932      3.12%     46.88% |        5932      3.12%     50.00% |        5946      3.13%     53.13% |        5946      3.13%     56.25% |        5947      3.13%     59.38% |        5937      3.12%     62.50% |        5943      3.12%     65.63% |        5952      3.13%     68.75% |        5932      3.12%     71.87% |        5940      3.12%     75.00% |        5947      3.13%     78.12% |        5943      3.12%     81.25% |        5953      3.13%     84.38% |        5943      3.12%     87.50% |        5941      3.12%     90.63% |        5946      3.13%     93.75% |        5954      3.13%     96.88% |        5931      3.12%    100.00%
system.ruby.L2Cache_Controller.IM.Mem_Data::total       190203                      
system.ruby.L2Cache_Controller.SS_MB.Exclusive_Unblock |         214     81.37%     81.37% |           6      2.28%     83.65% |           3      1.14%     84.79% |           6      2.28%     87.07% |           0      0.00%     87.07% |           1      0.38%     87.45% |           1      0.38%     87.83% |           0      0.00%     87.83% |           0      0.00%     87.83% |           1      0.38%     88.21% |           0      0.00%     88.21% |           0      0.00%     88.21% |           5      1.90%     90.11% |           0      0.00%     90.11% |           2      0.76%     90.87% |           1      0.38%     91.25% |           0      0.00%     91.25% |           0      0.00%     91.25% |          10      3.80%     95.06% |           2      0.76%     95.82% |           0      0.00%     95.82% |           0      0.00%     95.82% |           0      0.00%     95.82% |           0      0.00%     95.82% |           1      0.38%     96.20% |           0      0.00%     96.20% |           2      0.76%     96.96% |           1      0.38%     97.34% |           4      1.52%     98.86% |           1      0.38%     99.24% |           1      0.38%     99.62% |           1      0.38%    100.00%
system.ruby.L2Cache_Controller.SS_MB.Exclusive_Unblock::total          263                      
system.ruby.L2Cache_Controller.MT_MB.Exclusive_Unblock |       77636      7.09%      7.09% |       33388      3.05%     10.14% |       32686      2.99%     13.12% |       32853      3.00%     16.12% |       33108      3.02%     19.15% |       32032      2.93%     22.07% |       31957      2.92%     24.99% |       31674      2.89%     27.89% |       33956      3.10%     30.99% |       32355      2.95%     33.94% |       34303      3.13%     37.07% |       33125      3.03%     40.10% |       32695      2.99%     43.08% |       31745      2.90%     45.98% |       31778      2.90%     48.89% |       31669      2.89%     51.78% |       34275      3.13%     54.91% |       32115      2.93%     57.84% |       32966      3.01%     60.85% |       32543      2.97%     63.82% |       33034      3.02%     66.84% |       32476      2.97%     69.81% |       33015      3.02%     72.82% |       32009      2.92%     75.75% |       33648      3.07%     78.82% |       32343      2.95%     81.77% |       32844      3.00%     84.77% |       31819      2.91%     87.68% |       33166      3.03%     90.71% |       31907      2.91%     93.62% |       34283      3.13%     96.75% |       35572      3.25%    100.00%
system.ruby.L2Cache_Controller.MT_MB.Exclusive_Unblock::total      1094975                      
system.ruby.L2Cache_Controller.MT_IIB.L1_GETS |           0      0.00%      0.00% |           5     27.78%     27.78% |           1      5.56%     33.33% |           0      0.00%     33.33% |           0      0.00%     33.33% |           0      0.00%     33.33% |           0      0.00%     33.33% |           0      0.00%     33.33% |           0      0.00%     33.33% |           0      0.00%     33.33% |           0      0.00%     33.33% |           0      0.00%     33.33% |           0      0.00%     33.33% |           0      0.00%     33.33% |           0      0.00%     33.33% |           0      0.00%     33.33% |           0      0.00%     33.33% |           6     33.33%     66.67% |           6     33.33%    100.00% |           0      0.00%    100.00% |           0      0.00%    100.00% |           0      0.00%    100.00% |           0      0.00%    100.00% |           0      0.00%    100.00% |           0      0.00%    100.00% |           0      0.00%    100.00% |           0      0.00%    100.00% |           0      0.00%    100.00% |           0      0.00%    100.00% |           0      0.00%    100.00% |           0      0.00%    100.00% |           0      0.00%    100.00%
system.ruby.L2Cache_Controller.MT_IIB.L1_GETS::total           18                      
system.ruby.L2Cache_Controller.MT_IIB.WB_Data |         178      7.70%      7.70% |          69      2.99%     10.69% |          69      2.99%     13.67% |          62      2.68%     16.36% |          69      2.99%     19.34% |          69      2.99%     22.33% |          69      2.99%     25.31% |          69      2.99%     28.30% |          69      2.99%     31.29% |          69      2.99%     34.27% |          68      2.94%     37.21% |          67      2.90%     40.11% |          73      3.16%     43.27% |          69      2.99%     46.26% |          69      2.99%     49.24% |          69      2.99%     52.23% |          69      2.99%     55.21% |          69      2.99%     58.20% |          69      2.99%     61.19% |          69      2.99%     64.17% |          69      2.99%     67.16% |          69      2.99%     70.14% |          71      3.07%     73.22% |          69      2.99%     76.20% |          69      2.99%     79.19% |          69      2.99%     82.17% |          69      2.99%     85.16% |          69      2.99%     88.14% |          68      2.94%     91.09% |          68      2.94%     94.03% |          69      2.99%     97.01% |          69      2.99%    100.00%
system.ruby.L2Cache_Controller.MT_IIB.WB_Data::total         2311                      
system.ruby.L2Cache_Controller.MT_IIB.WB_Data_clean |         599     96.46%     96.46% |           4      0.64%     97.10% |           3      0.48%     97.58% |           3      0.48%     98.07% |           0      0.00%     98.07% |           0      0.00%     98.07% |           0      0.00%     98.07% |           0      0.00%     98.07% |           0      0.00%     98.07% |           0      0.00%     98.07% |           0      0.00%     98.07% |           0      0.00%     98.07% |           0      0.00%     98.07% |           0      0.00%     98.07% |           1      0.16%     98.23% |           0      0.00%     98.23% |           1      0.16%     98.39% |           4      0.64%     99.03% |           3      0.48%     99.52% |           3      0.48%    100.00% |           0      0.00%    100.00% |           0      0.00%    100.00% |           0      0.00%    100.00% |           0      0.00%    100.00% |           0      0.00%    100.00% |           0      0.00%    100.00% |           0      0.00%    100.00% |           0      0.00%    100.00% |           0      0.00%    100.00% |           0      0.00%    100.00% |           0      0.00%    100.00% |           0      0.00%    100.00%
system.ruby.L2Cache_Controller.MT_IIB.WB_Data_clean::total          621                      
system.ruby.L2Cache_Controller.MT_IIB.Unblock |           0      0.00%      0.00% |           2     10.00%     10.00% |           0      0.00%     10.00% |           7     35.00%     45.00% |           0      0.00%     45.00% |           0      0.00%     45.00% |           0      0.00%     45.00% |           0      0.00%     45.00% |           0      0.00%     45.00% |           0      0.00%     45.00% |           1      5.00%     50.00% |           2     10.00%     60.00% |           0      0.00%     60.00% |           0      0.00%     60.00% |           0      0.00%     60.00% |           0      0.00%     60.00% |           0      0.00%     60.00% |           0      0.00%     60.00% |           2     10.00%     70.00% |           1      5.00%     75.00% |           0      0.00%     75.00% |           0      0.00%     75.00% |           0      0.00%     75.00% |           0      0.00%     75.00% |           0      0.00%     75.00% |           1      5.00%     80.00% |           0      0.00%     80.00% |           0      0.00%     80.00% |           3     15.00%     95.00% |           1      5.00%    100.00% |           0      0.00%    100.00% |           0      0.00%    100.00%
system.ruby.L2Cache_Controller.MT_IIB.Unblock::total           20                      
system.ruby.L2Cache_Controller.MT_IB.WB_Data |           0      0.00%      0.00% |           2     10.53%     10.53% |           0      0.00%     10.53% |           7     36.84%     47.37% |           0      0.00%     47.37% |           0      0.00%     47.37% |           0      0.00%     47.37% |           0      0.00%     47.37% |           0      0.00%     47.37% |           0      0.00%     47.37% |           1      5.26%     52.63% |           2     10.53%     63.16% |           0      0.00%     63.16% |           0      0.00%     63.16% |           0      0.00%     63.16% |           0      0.00%     63.16% |           0      0.00%     63.16% |           0      0.00%     63.16% |           1      5.26%     68.42% |           1      5.26%     73.68% |           0      0.00%     73.68% |           0      0.00%     73.68% |           0      0.00%     73.68% |           0      0.00%     73.68% |           0      0.00%     73.68% |           1      5.26%     78.95% |           0      0.00%     78.95% |           0      0.00%     78.95% |           3     15.79%     94.74% |           1      5.26%    100.00% |           0      0.00%    100.00% |           0      0.00%    100.00%
system.ruby.L2Cache_Controller.MT_IB.WB_Data::total           19                      
system.ruby.L2Cache_Controller.MT_IB.WB_Data_clean |           0      0.00%      0.00% |           0      0.00%      0.00% |           0      0.00%      0.00% |           0      0.00%      0.00% |           0      0.00%      0.00% |           0      0.00%      0.00% |           0      0.00%      0.00% |           0      0.00%      0.00% |           0      0.00%      0.00% |           0      0.00%      0.00% |           0      0.00%      0.00% |           0      0.00%      0.00% |           0      0.00%      0.00% |           0      0.00%      0.00% |           0      0.00%      0.00% |           0      0.00%      0.00% |           0      0.00%      0.00% |           0      0.00%      0.00% |           1    100.00%    100.00% |           0      0.00%    100.00% |           0      0.00%    100.00% |           0      0.00%    100.00% |           0      0.00%    100.00% |           0      0.00%    100.00% |           0      0.00%    100.00% |           0      0.00%    100.00% |           0      0.00%    100.00% |           0      0.00%    100.00% |           0      0.00%    100.00% |           0      0.00%    100.00% |           0      0.00%    100.00% |           0      0.00%    100.00%
system.ruby.L2Cache_Controller.MT_IB.WB_Data_clean::total            1                      
system.ruby.L2Cache_Controller.MT_SB.L1_GETS |           0      0.00%      0.00% |           2     50.00%     50.00% |           1     25.00%     75.00% |           1     25.00%    100.00% |           0      0.00%    100.00% |           0      0.00%    100.00% |           0      0.00%    100.00% |           0      0.00%    100.00% |           0      0.00%    100.00% |           0      0.00%    100.00% |           0      0.00%    100.00% |           0      0.00%    100.00% |           0      0.00%    100.00% |           0      0.00%    100.00% |           0      0.00%    100.00% |           0      0.00%    100.00% |           0      0.00%    100.00% |           0      0.00%    100.00% |           0      0.00%    100.00% |           0      0.00%    100.00% |           0      0.00%    100.00% |           0      0.00%    100.00% |           0      0.00%    100.00% |           0      0.00%    100.00% |           0      0.00%    100.00% |           0      0.00%    100.00% |           0      0.00%    100.00% |           0      0.00%    100.00% |           0      0.00%    100.00% |           0      0.00%    100.00% |           0      0.00%    100.00% |           0      0.00%    100.00%
system.ruby.L2Cache_Controller.MT_SB.L1_GETS::total            4                      
system.ruby.L2Cache_Controller.MT_SB.Unblock |         777     26.50%     26.50% |          73      2.49%     28.99% |          72      2.46%     31.45% |          65      2.22%     33.66% |          69      2.35%     36.02% |          69      2.35%     38.37% |          69      2.35%     40.72% |          69      2.35%     43.08% |          69      2.35%     45.43% |          69      2.35%     47.78% |          68      2.32%     50.10% |          67      2.29%     52.39% |          73      2.49%     54.88% |          69      2.35%     57.23% |          70      2.39%     59.62% |          69      2.35%     61.97% |          70      2.39%     64.36% |          73      2.49%     66.85% |          72      2.46%     69.30% |          72      2.46%     71.76% |          69      2.35%     74.11% |          69      2.35%     76.47% |          71      2.42%     78.89% |          69      2.35%     81.24% |          69      2.35%     83.59% |          69      2.35%     85.95% |          69      2.35%     88.30% |          69      2.35%     90.65% |          68      2.32%     92.97% |          68      2.32%     95.29% |          69      2.35%     97.65% |          69      2.35%    100.00%
system.ruby.L2Cache_Controller.MT_SB.Unblock::total         2932                      
system.ruby.SimicsNetworkPortInterface_Controller.MessageSend |       76179      4.27%      4.27% |      891430     50.00%     54.27% |      108074      6.06%     60.33% |      103350      5.80%     66.13% |      101190      5.68%     71.81% |      103700      5.82%     77.62% |      101263      5.68%     83.30% |      102608      5.76%     89.06% |       97053      5.44%     94.50% |       98013      5.50%    100.00% |           0      0.00%    100.00% |           0      0.00%    100.00% |           0      0.00%    100.00% |           0      0.00%    100.00% |           0      0.00%    100.00% |           0      0.00%    100.00% |           0      0.00%    100.00% |           0      0.00%    100.00% |           0      0.00%    100.00% |           0      0.00%    100.00% |           0      0.00%    100.00% |           0      0.00%    100.00% |           0      0.00%    100.00% |           0      0.00%    100.00% |           0      0.00%    100.00% |           0      0.00%    100.00% |           0      0.00%    100.00% |           0      0.00%    100.00% |           0      0.00%    100.00% |           0      0.00%    100.00% |           0      0.00%    100.00% |           0      0.00%    100.00%
system.ruby.SimicsNetworkPortInterface_Controller.MessageSend::total      1782860                      
system.ruby.SimicsNetworkPortInterface_Controller.MessageRecv |       76179      4.27%      4.27% |      891430     50.00%     54.27% |      108074      6.06%     60.33% |      103350      5.80%     66.13% |      101190      5.68%     71.81% |      103700      5.82%     77.62% |      101263      5.68%     83.30% |      102608      5.76%     89.06% |       97053      5.44%     94.50% |       98013      5.50%    100.00% |           0      0.00%    100.00% |           0      0.00%    100.00% |           0      0.00%    100.00% |           0      0.00%    100.00% |           0      0.00%    100.00% |           0      0.00%    100.00% |           0      0.00%    100.00% |           0      0.00%    100.00% |           0      0.00%    100.00% |           0      0.00%    100.00% |           0      0.00%    100.00% |           0      0.00%    100.00% |           0      0.00%    100.00% |           0      0.00%    100.00% |           0      0.00%    100.00% |           0      0.00%    100.00% |           0      0.00%    100.00% |           0      0.00%    100.00% |           0      0.00%    100.00% |           0      0.00%    100.00% |           0      0.00%    100.00% |           0      0.00%    100.00%
system.ruby.SimicsNetworkPortInterface_Controller.MessageRecv::total      1782860                      
system.ruby.SimicsNetworkPortInterface_Controller.A.MessageSend |       76179      4.27%      4.27% |      891430     50.00%     54.27% |      108074      6.06%     60.33% |      103350      5.80%     66.13% |      101190      5.68%     71.81% |      103700      5.82%     77.62% |      101263      5.68%     83.30% |      102608      5.76%     89.06% |       97053      5.44%     94.50% |       98013      5.50%    100.00% |           0      0.00%    100.00% |           0      0.00%    100.00% |           0      0.00%    100.00% |           0      0.00%    100.00% |           0      0.00%    100.00% |           0      0.00%    100.00% |           0      0.00%    100.00% |           0      0.00%    100.00% |           0      0.00%    100.00% |           0      0.00%    100.00% |           0      0.00%    100.00% |           0      0.00%    100.00% |           0      0.00%    100.00% |           0      0.00%    100.00% |           0      0.00%    100.00% |           0      0.00%    100.00% |           0      0.00%    100.00% |           0      0.00%    100.00% |           0      0.00%    100.00% |           0      0.00%    100.00% |           0      0.00%    100.00% |           0      0.00%    100.00%
system.ruby.SimicsNetworkPortInterface_Controller.A.MessageSend::total      1782860                      
system.ruby.SimicsNetworkPortInterface_Controller.A.MessageRecv |       76179      4.27%      4.27% |      891430     50.00%     54.27% |      108074      6.06%     60.33% |      103350      5.80%     66.13% |      101190      5.68%     71.81% |      103700      5.82%     77.62% |      101263      5.68%     83.30% |      102608      5.76%     89.06% |       97053      5.44%     94.50% |       98013      5.50%    100.00% |           0      0.00%    100.00% |           0      0.00%    100.00% |           0      0.00%    100.00% |           0      0.00%    100.00% |           0      0.00%    100.00% |           0      0.00%    100.00% |           0      0.00%    100.00% |           0      0.00%    100.00% |           0      0.00%    100.00% |           0      0.00%    100.00% |           0      0.00%    100.00% |           0      0.00%    100.00% |           0      0.00%    100.00% |           0      0.00%    100.00% |           0      0.00%    100.00% |           0      0.00%    100.00% |           0      0.00%    100.00% |           0      0.00%    100.00% |           0      0.00%    100.00% |           0      0.00%    100.00% |           0      0.00%    100.00% |           0      0.00%    100.00%
system.ruby.SimicsNetworkPortInterface_Controller.A.MessageRecv::total      1782860                      
system.switch_cpus.kern.inst.arm                    0                       # number of arm instructions executed
system.switch_cpus.kern.inst.quiesce                0                       # number of quiesce instructions executed

---------- End Simulation Statistics   ----------
