
---------- Begin Simulation Statistics ----------
sim_seconds                                  0.056733                       # Number of seconds simulated
sim_ticks                                 56732997500                       # Number of ticks simulated
final_tick                               5232901076000                       # Number of ticks from beginning of simulation (restored from checkpoints and never reset)
sim_freq                                 1000000000000                       # Frequency of simulated ticks
host_inst_rate                                  14169                       # Simulator instruction rate (inst/s)
host_op_rate                                    25127                       # Simulator op (including micro ops) rate (op/s)
host_tick_rate                               35521379                       # Simulator tick rate (ticks/s)
host_mem_usage                                3564260                       # Number of bytes of host memory used
host_seconds                                  1597.15                       # Real time elapsed on the host
sim_insts                                    22629240                       # Number of instructions simulated
sim_ops                                      40131583                       # Number of ops (including micro ops) simulated
system.voltage_domain.voltage                       1                       # Voltage in Volts
system.clk_domain.clock                           500                       # Clock period in ticks
system.mem_ctrls0.bytes_read::ruby.dir_cntrl0     12635840                       # Number of bytes read from this memory
system.mem_ctrls0.bytes_read::total          12635840                       # Number of bytes read from this memory
system.mem_ctrls0.bytes_written::ruby.dir_cntrl0      8043200                       # Number of bytes written to this memory
system.mem_ctrls0.bytes_written::total        8043200                       # Number of bytes written to this memory
system.mem_ctrls0.num_reads::ruby.dir_cntrl0       197435                       # Number of read requests responded to by this memory
system.mem_ctrls0.num_reads::total             197435                       # Number of read requests responded to by this memory
system.mem_ctrls0.num_writes::ruby.dir_cntrl0       125675                       # Number of write requests responded to by this memory
system.mem_ctrls0.num_writes::total            125675                       # Number of write requests responded to by this memory
system.mem_ctrls0.bw_read::ruby.dir_cntrl0    222724703                       # Total read bandwidth from this memory (bytes/s)
system.mem_ctrls0.bw_read::total            222724703                       # Total read bandwidth from this memory (bytes/s)
system.mem_ctrls0.bw_write::ruby.dir_cntrl0    141772872                       # Write bandwidth from this memory (bytes/s)
system.mem_ctrls0.bw_write::total           141772872                       # Write bandwidth from this memory (bytes/s)
system.mem_ctrls0.bw_total::ruby.dir_cntrl0    364497575                       # Total bandwidth to/from this memory (bytes/s)
system.mem_ctrls0.bw_total::total           364497575                       # Total bandwidth to/from this memory (bytes/s)
system.mem_ctrls0.readReqs                     197435                       # Number of read requests accepted
system.mem_ctrls0.writeReqs                    125675                       # Number of write requests accepted
system.mem_ctrls0.readBursts                   197435                       # Number of DRAM read bursts, including those serviced by the write queue
system.mem_ctrls0.writeBursts                  125675                       # Number of DRAM write bursts, including those merged in the write queue
system.mem_ctrls0.bytesReadDRAM              12634240                       # Total number of bytes read from DRAM
system.mem_ctrls0.bytesReadWrQ                   1600                       # Total number of bytes read from write queue
system.mem_ctrls0.bytesWritten                8043136                       # Total number of bytes written to DRAM
system.mem_ctrls0.bytesReadSys               12635840                       # Total read bytes from the system interface side
system.mem_ctrls0.bytesWrittenSys             8043200                       # Total written bytes from the system interface side
system.mem_ctrls0.servicedByWrQ                    25                       # Number of DRAM read bursts serviced by the write queue
system.mem_ctrls0.mergedWrBursts                    0                       # Number of DRAM write bursts merged with an existing one
system.mem_ctrls0.neitherReadNorWriteReqs            0                       # Number of requests that are neither read nor write
system.mem_ctrls0.perBankRdBursts::0            12092                       # Per bank write bursts
system.mem_ctrls0.perBankRdBursts::1            12201                       # Per bank write bursts
system.mem_ctrls0.perBankRdBursts::2            12071                       # Per bank write bursts
system.mem_ctrls0.perBankRdBursts::3            12426                       # Per bank write bursts
system.mem_ctrls0.perBankRdBursts::4            12210                       # Per bank write bursts
system.mem_ctrls0.perBankRdBursts::5            12289                       # Per bank write bursts
system.mem_ctrls0.perBankRdBursts::6            12507                       # Per bank write bursts
system.mem_ctrls0.perBankRdBursts::7            12669                       # Per bank write bursts
system.mem_ctrls0.perBankRdBursts::8            12437                       # Per bank write bursts
system.mem_ctrls0.perBankRdBursts::9            12789                       # Per bank write bursts
system.mem_ctrls0.perBankRdBursts::10           12434                       # Per bank write bursts
system.mem_ctrls0.perBankRdBursts::11           12733                       # Per bank write bursts
system.mem_ctrls0.perBankRdBursts::12           12276                       # Per bank write bursts
system.mem_ctrls0.perBankRdBursts::13           12048                       # Per bank write bursts
system.mem_ctrls0.perBankRdBursts::14           12310                       # Per bank write bursts
system.mem_ctrls0.perBankRdBursts::15           11918                       # Per bank write bursts
system.mem_ctrls0.perBankWrBursts::0             7793                       # Per bank write bursts
system.mem_ctrls0.perBankWrBursts::1             7661                       # Per bank write bursts
system.mem_ctrls0.perBankWrBursts::2             7796                       # Per bank write bursts
system.mem_ctrls0.perBankWrBursts::3             7842                       # Per bank write bursts
system.mem_ctrls0.perBankWrBursts::4             7797                       # Per bank write bursts
system.mem_ctrls0.perBankWrBursts::5             7883                       # Per bank write bursts
system.mem_ctrls0.perBankWrBursts::6             7995                       # Per bank write bursts
system.mem_ctrls0.perBankWrBursts::7             8022                       # Per bank write bursts
system.mem_ctrls0.perBankWrBursts::8             7926                       # Per bank write bursts
system.mem_ctrls0.perBankWrBursts::9             8076                       # Per bank write bursts
system.mem_ctrls0.perBankWrBursts::10            7880                       # Per bank write bursts
system.mem_ctrls0.perBankWrBursts::11            7919                       # Per bank write bursts
system.mem_ctrls0.perBankWrBursts::12            7762                       # Per bank write bursts
system.mem_ctrls0.perBankWrBursts::13            7814                       # Per bank write bursts
system.mem_ctrls0.perBankWrBursts::14            7880                       # Per bank write bursts
system.mem_ctrls0.perBankWrBursts::15            7628                       # Per bank write bursts
system.mem_ctrls0.numRdRetry                    72210                       # Number of times read queue was full causing retry
system.mem_ctrls0.numWrRetry                     6993                       # Number of times write queue was full causing retry
system.mem_ctrls0.totGap                  56732489500                       # Total gap between requests
system.mem_ctrls0.readPktSize::0                    0                       # Read request sizes (log2)
system.mem_ctrls0.readPktSize::1                    0                       # Read request sizes (log2)
system.mem_ctrls0.readPktSize::2                    0                       # Read request sizes (log2)
system.mem_ctrls0.readPktSize::3                    0                       # Read request sizes (log2)
system.mem_ctrls0.readPktSize::4                    0                       # Read request sizes (log2)
system.mem_ctrls0.readPktSize::5                    0                       # Read request sizes (log2)
system.mem_ctrls0.readPktSize::6               197435                       # Read request sizes (log2)
system.mem_ctrls0.writePktSize::0                   0                       # Write request sizes (log2)
system.mem_ctrls0.writePktSize::1                   0                       # Write request sizes (log2)
system.mem_ctrls0.writePktSize::2                   0                       # Write request sizes (log2)
system.mem_ctrls0.writePktSize::3                   0                       # Write request sizes (log2)
system.mem_ctrls0.writePktSize::4                   0                       # Write request sizes (log2)
system.mem_ctrls0.writePktSize::5                   0                       # Write request sizes (log2)
system.mem_ctrls0.writePktSize::6              125675                       # Write request sizes (log2)
system.mem_ctrls0.rdQLenPdf::0                  68930                       # What read queue length does an incoming req see
system.mem_ctrls0.rdQLenPdf::1                   2959                       # What read queue length does an incoming req see
system.mem_ctrls0.rdQLenPdf::2                   1826                       # What read queue length does an incoming req see
system.mem_ctrls0.rdQLenPdf::3                   1207                       # What read queue length does an incoming req see
system.mem_ctrls0.rdQLenPdf::4                   1305                       # What read queue length does an incoming req see
system.mem_ctrls0.rdQLenPdf::5                   1410                       # What read queue length does an incoming req see
system.mem_ctrls0.rdQLenPdf::6                   1475                       # What read queue length does an incoming req see
system.mem_ctrls0.rdQLenPdf::7                   1455                       # What read queue length does an incoming req see
system.mem_ctrls0.rdQLenPdf::8                   1469                       # What read queue length does an incoming req see
system.mem_ctrls0.rdQLenPdf::9                   1541                       # What read queue length does an incoming req see
system.mem_ctrls0.rdQLenPdf::10                  1546                       # What read queue length does an incoming req see
system.mem_ctrls0.rdQLenPdf::11                  1553                       # What read queue length does an incoming req see
system.mem_ctrls0.rdQLenPdf::12                  1557                       # What read queue length does an incoming req see
system.mem_ctrls0.rdQLenPdf::13                  1571                       # What read queue length does an incoming req see
system.mem_ctrls0.rdQLenPdf::14                  1604                       # What read queue length does an incoming req see
system.mem_ctrls0.rdQLenPdf::15                  1619                       # What read queue length does an incoming req see
system.mem_ctrls0.rdQLenPdf::16                  1635                       # What read queue length does an incoming req see
system.mem_ctrls0.rdQLenPdf::17                  1663                       # What read queue length does an incoming req see
system.mem_ctrls0.rdQLenPdf::18                  1797                       # What read queue length does an incoming req see
system.mem_ctrls0.rdQLenPdf::19                  1847                       # What read queue length does an incoming req see
system.mem_ctrls0.rdQLenPdf::20                  1839                       # What read queue length does an incoming req see
system.mem_ctrls0.rdQLenPdf::21                  1872                       # What read queue length does an incoming req see
system.mem_ctrls0.rdQLenPdf::22                  1822                       # What read queue length does an incoming req see
system.mem_ctrls0.rdQLenPdf::23                  1902                       # What read queue length does an incoming req see
system.mem_ctrls0.rdQLenPdf::24                  1939                       # What read queue length does an incoming req see
system.mem_ctrls0.rdQLenPdf::25                  1952                       # What read queue length does an incoming req see
system.mem_ctrls0.rdQLenPdf::26                  1935                       # What read queue length does an incoming req see
system.mem_ctrls0.rdQLenPdf::27                  1978                       # What read queue length does an incoming req see
system.mem_ctrls0.rdQLenPdf::28                  2058                       # What read queue length does an incoming req see
system.mem_ctrls0.rdQLenPdf::29                  2213                       # What read queue length does an incoming req see
system.mem_ctrls0.rdQLenPdf::30                  2413                       # What read queue length does an incoming req see
system.mem_ctrls0.rdQLenPdf::31                 75518                       # What read queue length does an incoming req see
system.mem_ctrls0.wrQLenPdf::0                  16869                       # What write queue length does an incoming req see
system.mem_ctrls0.wrQLenPdf::1                  18286                       # What write queue length does an incoming req see
system.mem_ctrls0.wrQLenPdf::2                  19082                       # What write queue length does an incoming req see
system.mem_ctrls0.wrQLenPdf::3                  19544                       # What write queue length does an incoming req see
system.mem_ctrls0.wrQLenPdf::4                  20013                       # What write queue length does an incoming req see
system.mem_ctrls0.wrQLenPdf::5                   8141                       # What write queue length does an incoming req see
system.mem_ctrls0.wrQLenPdf::6                   9483                       # What write queue length does an incoming req see
system.mem_ctrls0.wrQLenPdf::7                  14257                       # What write queue length does an incoming req see
system.mem_ctrls0.bytesPerActivate::samples        82420                       # Bytes accessed per row activation
system.mem_ctrls0.bytesPerActivate::mean   250.871148                       # Bytes accessed per row activation
system.mem_ctrls0.bytesPerActivate::gmean   178.386623                       # Bytes accessed per row activation
system.mem_ctrls0.bytesPerActivate::stdev   221.586098                       # Bytes accessed per row activation
system.mem_ctrls0.bytesPerActivate::0-127        24968     30.29%     30.29% # Bytes accessed per row activation
system.mem_ctrls0.bytesPerActivate::128-255        20660     25.07%     55.36% # Bytes accessed per row activation
system.mem_ctrls0.bytesPerActivate::256-383        21759     26.40%     81.76% # Bytes accessed per row activation
system.mem_ctrls0.bytesPerActivate::384-511         5170      6.27%     88.03% # Bytes accessed per row activation
system.mem_ctrls0.bytesPerActivate::512-639         3586      4.35%     92.38% # Bytes accessed per row activation
system.mem_ctrls0.bytesPerActivate::640-767         1915      2.32%     94.71% # Bytes accessed per row activation
system.mem_ctrls0.bytesPerActivate::768-895         1172      1.42%     96.13% # Bytes accessed per row activation
system.mem_ctrls0.bytesPerActivate::896-1023          843      1.02%     97.15% # Bytes accessed per row activation
system.mem_ctrls0.bytesPerActivate::1024-1151         2347      2.85%    100.00% # Bytes accessed per row activation
system.mem_ctrls0.bytesPerActivate::total        82420                       # Bytes accessed per row activation
system.mem_ctrls0.rdPerTurnAround::samples        17581                       # Reads before turning the bus around for writes
system.mem_ctrls0.rdPerTurnAround::mean     11.228428                       # Reads before turning the bus around for writes
system.mem_ctrls0.rdPerTurnAround::stdev    32.155770                       # Reads before turning the bus around for writes
system.mem_ctrls0.rdPerTurnAround::0-127        17572     99.95%     99.95% # Reads before turning the bus around for writes
system.mem_ctrls0.rdPerTurnAround::128-255            8      0.05%     99.99% # Reads before turning the bus around for writes
system.mem_ctrls0.rdPerTurnAround::3968-4095            1      0.01%    100.00% # Reads before turning the bus around for writes
system.mem_ctrls0.rdPerTurnAround::total        17581                       # Reads before turning the bus around for writes
system.mem_ctrls0.wrPerTurnAround::samples        17581                       # Writes before turning the bus around for reads
system.mem_ctrls0.wrPerTurnAround::mean      7.148285                       # Writes before turning the bus around for reads
system.mem_ctrls0.wrPerTurnAround::gmean     6.489019                       # Writes before turning the bus around for reads
system.mem_ctrls0.wrPerTurnAround::stdev     3.586890                       # Writes before turning the bus around for reads
system.mem_ctrls0.wrPerTurnAround::4-7          12602     71.68%     71.68% # Writes before turning the bus around for reads
system.mem_ctrls0.wrPerTurnAround::8-11          2098     11.93%     83.61% # Writes before turning the bus around for reads
system.mem_ctrls0.wrPerTurnAround::12-15         1776     10.10%     93.71% # Writes before turning the bus around for reads
system.mem_ctrls0.wrPerTurnAround::16-19         1105      6.29%    100.00% # Writes before turning the bus around for reads
system.mem_ctrls0.wrPerTurnAround::total        17581                       # Writes before turning the bus around for reads
system.mem_ctrls0.totQLat                 32739713919                       # Total ticks spent queuing
system.mem_ctrls0.totMemAccLat            36441151419                       # Total ticks spent from burst creation until serviced by the DRAM
system.mem_ctrls0.totBusLat                 987050000                       # Total ticks spent in databus transfers
system.mem_ctrls0.avgQLat                   165846.28                       # Average queueing delay per DRAM burst
system.mem_ctrls0.avgBusLat                   5000.00                       # Average bus latency per DRAM burst
system.mem_ctrls0.avgMemAccLat              184596.28                       # Average memory access latency per DRAM burst
system.mem_ctrls0.avgRdBW                      222.70                       # Average DRAM read bandwidth in MiByte/s
system.mem_ctrls0.avgWrBW                      141.77                       # Average achieved write bandwidth in MiByte/s
system.mem_ctrls0.avgRdBWSys                   222.72                       # Average system read bandwidth in MiByte/s
system.mem_ctrls0.avgWrBWSys                   141.77                       # Average system write bandwidth in MiByte/s
system.mem_ctrls0.peakBW                     12800.00                       # Theoretical peak bandwidth in MiByte/s
system.mem_ctrls0.busUtil                        2.85                       # Data bus utilization in percentage
system.mem_ctrls0.busUtilRead                    1.74                       # Data bus utilization in percentage for reads
system.mem_ctrls0.busUtilWrite                   1.11                       # Data bus utilization in percentage for writes
system.mem_ctrls0.avgRdQLen                      1.60                       # Average read queue length when enqueuing
system.mem_ctrls0.avgWrQLen                      2.93                       # Average write queue length when enqueuing
system.mem_ctrls0.readRowHits                  155575                       # Number of row buffer hits during reads
system.mem_ctrls0.writeRowHits                  85081                       # Number of row buffer hits during writes
system.mem_ctrls0.readRowHitRate                78.81                       # Row buffer hit rate for reads
system.mem_ctrls0.writeRowHitRate               67.70                       # Row buffer hit rate for writes
system.mem_ctrls0.avgGap                    175582.59                       # Average gap between requests
system.mem_ctrls0.pageHitRate                   74.49                       # Row buffer hit rate, read and write combined
system.mem_ctrls0.memoryStateTime::IDLE   11626701000                       # Time in different power states
system.mem_ctrls0.memoryStateTime::REF     1894360000                       # Time in different power states
system.mem_ctrls0.memoryStateTime::PRE_PDN            0                       # Time in different power states
system.mem_ctrls0.memoryStateTime::ACT    43209830250                       # Time in different power states
system.mem_ctrls0.memoryStateTime::ACT_PDN            0                       # Time in different power states
system.mem_ctrls0.actEnergy::0              313845840                       # Energy for activate commands per rank (pJ)
system.mem_ctrls0.actEnergy::1              309219120                       # Energy for activate commands per rank (pJ)
system.mem_ctrls0.preEnergy::0              171245250                       # Energy for precharge commands per rank (pJ)
system.mem_ctrls0.preEnergy::1              168720750                       # Energy for precharge commands per rank (pJ)
system.mem_ctrls0.readEnergy::0             768011400                       # Energy for read commands per rank (pJ)
system.mem_ctrls0.readEnergy::1             771700800                       # Energy for read commands per rank (pJ)
system.mem_ctrls0.writeEnergy::0            406859760                       # Energy for write commands per rank (pJ)
system.mem_ctrls0.writeEnergy::1            407475360                       # Energy for write commands per rank (pJ)
system.mem_ctrls0.refreshEnergy::0         3705368160                       # Energy for refresh commands per rank (pJ)
system.mem_ctrls0.refreshEnergy::1         3705368160                       # Energy for refresh commands per rank (pJ)
system.mem_ctrls0.actBackEnergy::0        22306700340                       # Energy for active background per rank (pJ)
system.mem_ctrls0.actBackEnergy::1        21790864305                       # Energy for active background per rank (pJ)
system.mem_ctrls0.preBackEnergy::0        14471245500                       # Energy for precharge background per rank (pJ)
system.mem_ctrls0.preBackEnergy::1        14923733250                       # Energy for precharge background per rank (pJ)
system.mem_ctrls0.totalEnergy::0          42143276250                       # Total energy per rank (pJ)
system.mem_ctrls0.totalEnergy::1          42077081745                       # Total energy per rank (pJ)
system.mem_ctrls0.averagePower::0          742.863113                       # Core power per rank (mW)
system.mem_ctrls0.averagePower::1          741.696297                       # Core power per rank (mW)
system.mem_ctrls1.bytes_read::ruby.dir_cntrl1     12408960                       # Number of bytes read from this memory
system.mem_ctrls1.bytes_read::total          12408960                       # Number of bytes read from this memory
system.mem_ctrls1.bytes_written::ruby.dir_cntrl1      7825920                       # Number of bytes written to this memory
system.mem_ctrls1.bytes_written::total        7825920                       # Number of bytes written to this memory
system.mem_ctrls1.num_reads::ruby.dir_cntrl1       193890                       # Number of read requests responded to by this memory
system.mem_ctrls1.num_reads::total             193890                       # Number of read requests responded to by this memory
system.mem_ctrls1.num_writes::ruby.dir_cntrl1       122280                       # Number of write requests responded to by this memory
system.mem_ctrls1.num_writes::total            122280                       # Number of write requests responded to by this memory
system.mem_ctrls1.bw_read::ruby.dir_cntrl1    218725619                       # Total read bandwidth from this memory (bytes/s)
system.mem_ctrls1.bw_read::total            218725619                       # Total read bandwidth from this memory (bytes/s)
system.mem_ctrls1.bw_write::ruby.dir_cntrl1    137943002                       # Write bandwidth from this memory (bytes/s)
system.mem_ctrls1.bw_write::total           137943002                       # Write bandwidth from this memory (bytes/s)
system.mem_ctrls1.bw_total::ruby.dir_cntrl1    356668621                       # Total bandwidth to/from this memory (bytes/s)
system.mem_ctrls1.bw_total::total           356668621                       # Total bandwidth to/from this memory (bytes/s)
system.mem_ctrls1.readReqs                     193892                       # Number of read requests accepted
system.mem_ctrls1.writeReqs                    122280                       # Number of write requests accepted
system.mem_ctrls1.readBursts                   193892                       # Number of DRAM read bursts, including those serviced by the write queue
system.mem_ctrls1.writeBursts                  122280                       # Number of DRAM write bursts, including those merged in the write queue
system.mem_ctrls1.bytesReadDRAM              12407296                       # Total number of bytes read from DRAM
system.mem_ctrls1.bytesReadWrQ                   1792                       # Total number of bytes read from write queue
system.mem_ctrls1.bytesWritten                7825920                       # Total number of bytes written to DRAM
system.mem_ctrls1.bytesReadSys               12409088                       # Total read bytes from the system interface side
system.mem_ctrls1.bytesWrittenSys             7825920                       # Total written bytes from the system interface side
system.mem_ctrls1.servicedByWrQ                    28                       # Number of DRAM read bursts serviced by the write queue
system.mem_ctrls1.mergedWrBursts                    0                       # Number of DRAM write bursts merged with an existing one
system.mem_ctrls1.neitherReadNorWriteReqs            0                       # Number of requests that are neither read nor write
system.mem_ctrls1.perBankRdBursts::0            11884                       # Per bank write bursts
system.mem_ctrls1.perBankRdBursts::1            11978                       # Per bank write bursts
system.mem_ctrls1.perBankRdBursts::2            11840                       # Per bank write bursts
system.mem_ctrls1.perBankRdBursts::3            12187                       # Per bank write bursts
system.mem_ctrls1.perBankRdBursts::4            12008                       # Per bank write bursts
system.mem_ctrls1.perBankRdBursts::5            12105                       # Per bank write bursts
system.mem_ctrls1.perBankRdBursts::6            12325                       # Per bank write bursts
system.mem_ctrls1.perBankRdBursts::7            12458                       # Per bank write bursts
system.mem_ctrls1.perBankRdBursts::8            12204                       # Per bank write bursts
system.mem_ctrls1.perBankRdBursts::9            12561                       # Per bank write bursts
system.mem_ctrls1.perBankRdBursts::10           12201                       # Per bank write bursts
system.mem_ctrls1.perBankRdBursts::11           12542                       # Per bank write bursts
system.mem_ctrls1.perBankRdBursts::12           12045                       # Per bank write bursts
system.mem_ctrls1.perBankRdBursts::13           11813                       # Per bank write bursts
system.mem_ctrls1.perBankRdBursts::14           11998                       # Per bank write bursts
system.mem_ctrls1.perBankRdBursts::15           11715                       # Per bank write bursts
system.mem_ctrls1.perBankWrBursts::0             7590                       # Per bank write bursts
system.mem_ctrls1.perBankWrBursts::1             7467                       # Per bank write bursts
system.mem_ctrls1.perBankWrBursts::2             7592                       # Per bank write bursts
system.mem_ctrls1.perBankWrBursts::3             7630                       # Per bank write bursts
system.mem_ctrls1.perBankWrBursts::4             7601                       # Per bank write bursts
system.mem_ctrls1.perBankWrBursts::5             7686                       # Per bank write bursts
system.mem_ctrls1.perBankWrBursts::6             7774                       # Per bank write bursts
system.mem_ctrls1.perBankWrBursts::7             7804                       # Per bank write bursts
system.mem_ctrls1.perBankWrBursts::8             7715                       # Per bank write bursts
system.mem_ctrls1.perBankWrBursts::9             7860                       # Per bank write bursts
system.mem_ctrls1.perBankWrBursts::10            7662                       # Per bank write bursts
system.mem_ctrls1.perBankWrBursts::11            7708                       # Per bank write bursts
system.mem_ctrls1.perBankWrBursts::12            7552                       # Per bank write bursts
system.mem_ctrls1.perBankWrBursts::13            7599                       # Per bank write bursts
system.mem_ctrls1.perBankWrBursts::14            7612                       # Per bank write bursts
system.mem_ctrls1.perBankWrBursts::15            7428                       # Per bank write bursts
system.mem_ctrls1.numRdRetry                    59470                       # Number of times read queue was full causing retry
system.mem_ctrls1.numWrRetry                     6377                       # Number of times write queue was full causing retry
system.mem_ctrls1.totGap                  56732366000                       # Total gap between requests
system.mem_ctrls1.readPktSize::0                    0                       # Read request sizes (log2)
system.mem_ctrls1.readPktSize::1                    0                       # Read request sizes (log2)
system.mem_ctrls1.readPktSize::2                    0                       # Read request sizes (log2)
system.mem_ctrls1.readPktSize::3                    0                       # Read request sizes (log2)
system.mem_ctrls1.readPktSize::4                    0                       # Read request sizes (log2)
system.mem_ctrls1.readPktSize::5                    0                       # Read request sizes (log2)
system.mem_ctrls1.readPktSize::6               193892                       # Read request sizes (log2)
system.mem_ctrls1.writePktSize::0                   0                       # Write request sizes (log2)
system.mem_ctrls1.writePktSize::1                   0                       # Write request sizes (log2)
system.mem_ctrls1.writePktSize::2                   0                       # Write request sizes (log2)
system.mem_ctrls1.writePktSize::3                   0                       # Write request sizes (log2)
system.mem_ctrls1.writePktSize::4                   0                       # Write request sizes (log2)
system.mem_ctrls1.writePktSize::5                   0                       # Write request sizes (log2)
system.mem_ctrls1.writePktSize::6              122280                       # Write request sizes (log2)
system.mem_ctrls1.rdQLenPdf::0                  67758                       # What read queue length does an incoming req see
system.mem_ctrls1.rdQLenPdf::1                   1731                       # What read queue length does an incoming req see
system.mem_ctrls1.rdQLenPdf::2                   1453                       # What read queue length does an incoming req see
system.mem_ctrls1.rdQLenPdf::3                   1535                       # What read queue length does an incoming req see
system.mem_ctrls1.rdQLenPdf::4                   1634                       # What read queue length does an incoming req see
system.mem_ctrls1.rdQLenPdf::5                   1756                       # What read queue length does an incoming req see
system.mem_ctrls1.rdQLenPdf::6                   1833                       # What read queue length does an incoming req see
system.mem_ctrls1.rdQLenPdf::7                   1822                       # What read queue length does an incoming req see
system.mem_ctrls1.rdQLenPdf::8                   1936                       # What read queue length does an incoming req see
system.mem_ctrls1.rdQLenPdf::9                   1992                       # What read queue length does an incoming req see
system.mem_ctrls1.rdQLenPdf::10                  1965                       # What read queue length does an incoming req see
system.mem_ctrls1.rdQLenPdf::11                  2012                       # What read queue length does an incoming req see
system.mem_ctrls1.rdQLenPdf::12                  1977                       # What read queue length does an incoming req see
system.mem_ctrls1.rdQLenPdf::13                  1971                       # What read queue length does an incoming req see
system.mem_ctrls1.rdQLenPdf::14                  2133                       # What read queue length does an incoming req see
system.mem_ctrls1.rdQLenPdf::15                  2248                       # What read queue length does an incoming req see
system.mem_ctrls1.rdQLenPdf::16                  2133                       # What read queue length does an incoming req see
system.mem_ctrls1.rdQLenPdf::17                  2168                       # What read queue length does an incoming req see
system.mem_ctrls1.rdQLenPdf::18                  2076                       # What read queue length does an incoming req see
system.mem_ctrls1.rdQLenPdf::19                  2066                       # What read queue length does an incoming req see
system.mem_ctrls1.rdQLenPdf::20                  2097                       # What read queue length does an incoming req see
system.mem_ctrls1.rdQLenPdf::21                  2164                       # What read queue length does an incoming req see
system.mem_ctrls1.rdQLenPdf::22                  2166                       # What read queue length does an incoming req see
system.mem_ctrls1.rdQLenPdf::23                  2268                       # What read queue length does an incoming req see
system.mem_ctrls1.rdQLenPdf::24                  2269                       # What read queue length does an incoming req see
system.mem_ctrls1.rdQLenPdf::25                  2353                       # What read queue length does an incoming req see
system.mem_ctrls1.rdQLenPdf::26                  2394                       # What read queue length does an incoming req see
system.mem_ctrls1.rdQLenPdf::27                  2509                       # What read queue length does an incoming req see
system.mem_ctrls1.rdQLenPdf::28                  2576                       # What read queue length does an incoming req see
system.mem_ctrls1.rdQLenPdf::29                  2713                       # What read queue length does an incoming req see
system.mem_ctrls1.rdQLenPdf::30                  2980                       # What read queue length does an incoming req see
system.mem_ctrls1.rdQLenPdf::31                 63176                       # What read queue length does an incoming req see
system.mem_ctrls1.wrQLenPdf::0                  16375                       # What write queue length does an incoming req see
system.mem_ctrls1.wrQLenPdf::1                  18017                       # What write queue length does an incoming req see
system.mem_ctrls1.wrQLenPdf::2                  18735                       # What write queue length does an incoming req see
system.mem_ctrls1.wrQLenPdf::3                  19216                       # What write queue length does an incoming req see
system.mem_ctrls1.wrQLenPdf::4                  19712                       # What write queue length does an incoming req see
system.mem_ctrls1.wrQLenPdf::5                   8085                       # What write queue length does an incoming req see
system.mem_ctrls1.wrQLenPdf::6                   9145                       # What write queue length does an incoming req see
system.mem_ctrls1.wrQLenPdf::7                  12995                       # What write queue length does an incoming req see
system.mem_ctrls1.bytesPerActivate::samples        75362                       # Bytes accessed per row activation
system.mem_ctrls1.bytesPerActivate::mean   268.471856                       # Bytes accessed per row activation
system.mem_ctrls1.bytesPerActivate::gmean   195.474374                       # Bytes accessed per row activation
system.mem_ctrls1.bytesPerActivate::stdev   225.119885                       # Bytes accessed per row activation
system.mem_ctrls1.bytesPerActivate::0-127        18594     24.67%     24.67% # Bytes accessed per row activation
system.mem_ctrls1.bytesPerActivate::128-255        19781     26.25%     50.92% # Bytes accessed per row activation
system.mem_ctrls1.bytesPerActivate::256-383        21957     29.14%     80.06% # Bytes accessed per row activation
system.mem_ctrls1.bytesPerActivate::384-511         5136      6.82%     86.87% # Bytes accessed per row activation
system.mem_ctrls1.bytesPerActivate::512-639         3649      4.84%     91.71% # Bytes accessed per row activation
system.mem_ctrls1.bytesPerActivate::640-767         1800      2.39%     94.10% # Bytes accessed per row activation
system.mem_ctrls1.bytesPerActivate::768-895         1208      1.60%     95.70% # Bytes accessed per row activation
system.mem_ctrls1.bytesPerActivate::896-1023          808      1.07%     96.78% # Bytes accessed per row activation
system.mem_ctrls1.bytesPerActivate::1024-1151         2429      3.22%    100.00% # Bytes accessed per row activation
system.mem_ctrls1.bytesPerActivate::total        75362                       # Bytes accessed per row activation
system.mem_ctrls1.rdPerTurnAround::samples        17114                       # Reads before turning the bus around for writes
system.mem_ctrls1.rdPerTurnAround::mean     11.327685                       # Reads before turning the bus around for writes
system.mem_ctrls1.rdPerTurnAround::stdev    26.547422                       # Reads before turning the bus around for writes
system.mem_ctrls1.rdPerTurnAround::0-127        17107     99.96%     99.96% # Reads before turning the bus around for writes
system.mem_ctrls1.rdPerTurnAround::128-255            5      0.03%     99.99% # Reads before turning the bus around for writes
system.mem_ctrls1.rdPerTurnAround::1152-1279            1      0.01%     99.99% # Reads before turning the bus around for writes
system.mem_ctrls1.rdPerTurnAround::2816-2943            1      0.01%    100.00% # Reads before turning the bus around for writes
system.mem_ctrls1.rdPerTurnAround::total        17114                       # Reads before turning the bus around for writes
system.mem_ctrls1.wrPerTurnAround::samples        17114                       # Writes before turning the bus around for reads
system.mem_ctrls1.wrPerTurnAround::mean      7.145027                       # Writes before turning the bus around for reads
system.mem_ctrls1.wrPerTurnAround::gmean     6.488447                       # Writes before turning the bus around for reads
system.mem_ctrls1.wrPerTurnAround::stdev     3.577820                       # Writes before turning the bus around for reads
system.mem_ctrls1.wrPerTurnAround::4-7          12203     71.30%     71.30% # Writes before turning the bus around for reads
system.mem_ctrls1.wrPerTurnAround::8-11          2160     12.62%     83.93% # Writes before turning the bus around for reads
system.mem_ctrls1.wrPerTurnAround::12-15         1653      9.66%     93.58% # Writes before turning the bus around for reads
system.mem_ctrls1.wrPerTurnAround::16-19         1098      6.42%    100.00% # Writes before turning the bus around for reads
system.mem_ctrls1.wrPerTurnAround::total        17114                       # Writes before turning the bus around for reads
system.mem_ctrls1.totQLat                 30367653037                       # Total ticks spent queuing
system.mem_ctrls1.totMemAccLat            34002603037                       # Total ticks spent from burst creation until serviced by the DRAM
system.mem_ctrls1.totBusLat                 969320000                       # Total ticks spent in databus transfers
system.mem_ctrls1.avgQLat                   156644.11                       # Average queueing delay per DRAM burst
system.mem_ctrls1.avgBusLat                   5000.00                       # Average bus latency per DRAM burst
system.mem_ctrls1.avgMemAccLat              175394.11                       # Average memory access latency per DRAM burst
system.mem_ctrls1.avgRdBW                      218.70                       # Average DRAM read bandwidth in MiByte/s
system.mem_ctrls1.avgWrBW                      137.94                       # Average achieved write bandwidth in MiByte/s
system.mem_ctrls1.avgRdBWSys                   218.73                       # Average system read bandwidth in MiByte/s
system.mem_ctrls1.avgWrBWSys                   137.94                       # Average system write bandwidth in MiByte/s
system.mem_ctrls1.peakBW                     12800.00                       # Theoretical peak bandwidth in MiByte/s
system.mem_ctrls1.busUtil                        2.79                       # Data bus utilization in percentage
system.mem_ctrls1.busUtilRead                    1.71                       # Data bus utilization in percentage for reads
system.mem_ctrls1.busUtilWrite                   1.08                       # Data bus utilization in percentage for writes
system.mem_ctrls1.avgRdQLen                      1.57                       # Average read queue length when enqueuing
system.mem_ctrls1.avgWrQLen                      2.97                       # Average write queue length when enqueuing
system.mem_ctrls1.readRowHits                  154283                       # Number of row buffer hits during reads
system.mem_ctrls1.writeRowHits                  86491                       # Number of row buffer hits during writes
system.mem_ctrls1.readRowHitRate                79.58                       # Row buffer hit rate for reads
system.mem_ctrls1.writeRowHitRate               70.73                       # Row buffer hit rate for writes
system.mem_ctrls1.avgGap                    179435.14                       # Average gap between requests
system.mem_ctrls1.pageHitRate                   76.16                       # Row buffer hit rate, read and write combined
system.mem_ctrls1.memoryStateTime::IDLE   11891946250                       # Time in different power states
system.mem_ctrls1.memoryStateTime::REF     1894360000                       # Time in different power states
system.mem_ctrls1.memoryStateTime::PRE_PDN            0                       # Time in different power states
system.mem_ctrls1.memoryStateTime::ACT    42944585000                       # Time in different power states
system.mem_ctrls1.memoryStateTime::ACT_PDN            0                       # Time in different power states
system.mem_ctrls1.actEnergy::0              287915040                       # Energy for activate commands per rank (pJ)
system.mem_ctrls1.actEnergy::1              281799000                       # Energy for activate commands per rank (pJ)
system.mem_ctrls1.preEnergy::0              157096500                       # Energy for precharge commands per rank (pJ)
system.mem_ctrls1.preEnergy::1              153759375                       # Energy for precharge commands per rank (pJ)
system.mem_ctrls1.readEnergy::0             754884000                       # Energy for read commands per rank (pJ)
system.mem_ctrls1.readEnergy::1             757153800                       # Energy for read commands per rank (pJ)
system.mem_ctrls1.writeEnergy::0            396200160                       # Energy for write commands per rank (pJ)
system.mem_ctrls1.writeEnergy::1            396141840                       # Energy for write commands per rank (pJ)
system.mem_ctrls1.refreshEnergy::0         3705368160                       # Energy for refresh commands per rank (pJ)
system.mem_ctrls1.refreshEnergy::1         3705368160                       # Energy for refresh commands per rank (pJ)
system.mem_ctrls1.actBackEnergy::0        22084247295                       # Energy for active background per rank (pJ)
system.mem_ctrls1.actBackEnergy::1        21531257235                       # Energy for active background per rank (pJ)
system.mem_ctrls1.preBackEnergy::0        14666379750                       # Energy for precharge background per rank (pJ)
system.mem_ctrls1.preBackEnergy::1        15151458750                       # Energy for precharge background per rank (pJ)
system.mem_ctrls1.totalEnergy::0          42052090905                       # Total energy per rank (pJ)
system.mem_ctrls1.totalEnergy::1          41976938160                       # Total energy per rank (pJ)
system.mem_ctrls1.averagePower::0          741.255781                       # Core power per rank (mW)
system.mem_ctrls1.averagePower::1          739.931057                       # Core power per rank (mW)
system.mem_ctrls2.bytes_read::ruby.dir_cntrl2     12408512                       # Number of bytes read from this memory
system.mem_ctrls2.bytes_read::total          12408512                       # Number of bytes read from this memory
system.mem_ctrls2.bytes_written::ruby.dir_cntrl2      7826368                       # Number of bytes written to this memory
system.mem_ctrls2.bytes_written::total        7826368                       # Number of bytes written to this memory
system.mem_ctrls2.num_reads::ruby.dir_cntrl2       193883                       # Number of read requests responded to by this memory
system.mem_ctrls2.num_reads::total             193883                       # Number of read requests responded to by this memory
system.mem_ctrls2.num_writes::ruby.dir_cntrl2       122287                       # Number of write requests responded to by this memory
system.mem_ctrls2.num_writes::total            122287                       # Number of write requests responded to by this memory
system.mem_ctrls2.bw_read::ruby.dir_cntrl2    218717722                       # Total read bandwidth from this memory (bytes/s)
system.mem_ctrls2.bw_read::total            218717722                       # Total read bandwidth from this memory (bytes/s)
system.mem_ctrls2.bw_write::ruby.dir_cntrl2    137950899                       # Write bandwidth from this memory (bytes/s)
system.mem_ctrls2.bw_write::total           137950899                       # Write bandwidth from this memory (bytes/s)
system.mem_ctrls2.bw_total::ruby.dir_cntrl2    356668621                       # Total bandwidth to/from this memory (bytes/s)
system.mem_ctrls2.bw_total::total           356668621                       # Total bandwidth to/from this memory (bytes/s)
system.mem_ctrls2.readReqs                     193883                       # Number of read requests accepted
system.mem_ctrls2.writeReqs                    122287                       # Number of write requests accepted
system.mem_ctrls2.readBursts                   193883                       # Number of DRAM read bursts, including those serviced by the write queue
system.mem_ctrls2.writeBursts                  122287                       # Number of DRAM write bursts, including those merged in the write queue
system.mem_ctrls2.bytesReadDRAM              12407040                       # Total number of bytes read from DRAM
system.mem_ctrls2.bytesReadWrQ                   1472                       # Total number of bytes read from write queue
system.mem_ctrls2.bytesWritten                7826112                       # Total number of bytes written to DRAM
system.mem_ctrls2.bytesReadSys               12408512                       # Total read bytes from the system interface side
system.mem_ctrls2.bytesWrittenSys             7826368                       # Total written bytes from the system interface side
system.mem_ctrls2.servicedByWrQ                    23                       # Number of DRAM read bursts serviced by the write queue
system.mem_ctrls2.mergedWrBursts                    0                       # Number of DRAM write bursts merged with an existing one
system.mem_ctrls2.neitherReadNorWriteReqs            0                       # Number of requests that are neither read nor write
system.mem_ctrls2.perBankRdBursts::0            11878                       # Per bank write bursts
system.mem_ctrls2.perBankRdBursts::1            12007                       # Per bank write bursts
system.mem_ctrls2.perBankRdBursts::2            11863                       # Per bank write bursts
system.mem_ctrls2.perBankRdBursts::3            12228                       # Per bank write bursts
system.mem_ctrls2.perBankRdBursts::4            12013                       # Per bank write bursts
system.mem_ctrls2.perBankRdBursts::5            12086                       # Per bank write bursts
system.mem_ctrls2.perBankRdBursts::6            12289                       # Per bank write bursts
system.mem_ctrls2.perBankRdBursts::7            12455                       # Per bank write bursts
system.mem_ctrls2.perBankRdBursts::8            12195                       # Per bank write bursts
system.mem_ctrls2.perBankRdBursts::9            12542                       # Per bank write bursts
system.mem_ctrls2.perBankRdBursts::10           12208                       # Per bank write bursts
system.mem_ctrls2.perBankRdBursts::11           12581                       # Per bank write bursts
system.mem_ctrls2.perBankRdBursts::12           12045                       # Per bank write bursts
system.mem_ctrls2.perBankRdBursts::13           11775                       # Per bank write bursts
system.mem_ctrls2.perBankRdBursts::14           11980                       # Per bank write bursts
system.mem_ctrls2.perBankRdBursts::15           11715                       # Per bank write bursts
system.mem_ctrls2.perBankWrBursts::0             7583                       # Per bank write bursts
system.mem_ctrls2.perBankWrBursts::1             7465                       # Per bank write bursts
system.mem_ctrls2.perBankWrBursts::2             7593                       # Per bank write bursts
system.mem_ctrls2.perBankWrBursts::3             7641                       # Per bank write bursts
system.mem_ctrls2.perBankWrBursts::4             7596                       # Per bank write bursts
system.mem_ctrls2.perBankWrBursts::5             7671                       # Per bank write bursts
system.mem_ctrls2.perBankWrBursts::6             7766                       # Per bank write bursts
system.mem_ctrls2.perBankWrBursts::7             7812                       # Per bank write bursts
system.mem_ctrls2.perBankWrBursts::8             7717                       # Per bank write bursts
system.mem_ctrls2.perBankWrBursts::9             7862                       # Per bank write bursts
system.mem_ctrls2.perBankWrBursts::10            7662                       # Per bank write bursts
system.mem_ctrls2.perBankWrBursts::11            7720                       # Per bank write bursts
system.mem_ctrls2.perBankWrBursts::12            7558                       # Per bank write bursts
system.mem_ctrls2.perBankWrBursts::13            7589                       # Per bank write bursts
system.mem_ctrls2.perBankWrBursts::14            7616                       # Per bank write bursts
system.mem_ctrls2.perBankWrBursts::15            7432                       # Per bank write bursts
system.mem_ctrls2.numRdRetry                    62467                       # Number of times read queue was full causing retry
system.mem_ctrls2.numWrRetry                     6594                       # Number of times write queue was full causing retry
system.mem_ctrls2.totGap                  56732925000                       # Total gap between requests
system.mem_ctrls2.readPktSize::0                    0                       # Read request sizes (log2)
system.mem_ctrls2.readPktSize::1                    0                       # Read request sizes (log2)
system.mem_ctrls2.readPktSize::2                    0                       # Read request sizes (log2)
system.mem_ctrls2.readPktSize::3                    0                       # Read request sizes (log2)
system.mem_ctrls2.readPktSize::4                    0                       # Read request sizes (log2)
system.mem_ctrls2.readPktSize::5                    0                       # Read request sizes (log2)
system.mem_ctrls2.readPktSize::6               193883                       # Read request sizes (log2)
system.mem_ctrls2.writePktSize::0                   0                       # Write request sizes (log2)
system.mem_ctrls2.writePktSize::1                   0                       # Write request sizes (log2)
system.mem_ctrls2.writePktSize::2                   0                       # Write request sizes (log2)
system.mem_ctrls2.writePktSize::3                   0                       # Write request sizes (log2)
system.mem_ctrls2.writePktSize::4                   0                       # Write request sizes (log2)
system.mem_ctrls2.writePktSize::5                   0                       # Write request sizes (log2)
system.mem_ctrls2.writePktSize::6              122287                       # Write request sizes (log2)
system.mem_ctrls2.rdQLenPdf::0                  67820                       # What read queue length does an incoming req see
system.mem_ctrls2.rdQLenPdf::1                   1619                       # What read queue length does an incoming req see
system.mem_ctrls2.rdQLenPdf::2                   1329                       # What read queue length does an incoming req see
system.mem_ctrls2.rdQLenPdf::3                   1425                       # What read queue length does an incoming req see
system.mem_ctrls2.rdQLenPdf::4                   1586                       # What read queue length does an incoming req see
system.mem_ctrls2.rdQLenPdf::5                   1735                       # What read queue length does an incoming req see
system.mem_ctrls2.rdQLenPdf::6                   1783                       # What read queue length does an incoming req see
system.mem_ctrls2.rdQLenPdf::7                   1726                       # What read queue length does an incoming req see
system.mem_ctrls2.rdQLenPdf::8                   1792                       # What read queue length does an incoming req see
system.mem_ctrls2.rdQLenPdf::9                   1837                       # What read queue length does an incoming req see
system.mem_ctrls2.rdQLenPdf::10                  1811                       # What read queue length does an incoming req see
system.mem_ctrls2.rdQLenPdf::11                  1817                       # What read queue length does an incoming req see
system.mem_ctrls2.rdQLenPdf::12                  1815                       # What read queue length does an incoming req see
system.mem_ctrls2.rdQLenPdf::13                  1880                       # What read queue length does an incoming req see
system.mem_ctrls2.rdQLenPdf::14                  1911                       # What read queue length does an incoming req see
system.mem_ctrls2.rdQLenPdf::15                  1978                       # What read queue length does an incoming req see
system.mem_ctrls2.rdQLenPdf::16                  1985                       # What read queue length does an incoming req see
system.mem_ctrls2.rdQLenPdf::17                  1992                       # What read queue length does an incoming req see
system.mem_ctrls2.rdQLenPdf::18                  1911                       # What read queue length does an incoming req see
system.mem_ctrls2.rdQLenPdf::19                  2030                       # What read queue length does an incoming req see
system.mem_ctrls2.rdQLenPdf::20                  2079                       # What read queue length does an incoming req see
system.mem_ctrls2.rdQLenPdf::21                  2017                       # What read queue length does an incoming req see
system.mem_ctrls2.rdQLenPdf::22                  2086                       # What read queue length does an incoming req see
system.mem_ctrls2.rdQLenPdf::23                  2186                       # What read queue length does an incoming req see
system.mem_ctrls2.rdQLenPdf::24                  2249                       # What read queue length does an incoming req see
system.mem_ctrls2.rdQLenPdf::25                  2311                       # What read queue length does an incoming req see
system.mem_ctrls2.rdQLenPdf::26                  2505                       # What read queue length does an incoming req see
system.mem_ctrls2.rdQLenPdf::27                  2397                       # What read queue length does an incoming req see
system.mem_ctrls2.rdQLenPdf::28                  2466                       # What read queue length does an incoming req see
system.mem_ctrls2.rdQLenPdf::29                  2651                       # What read queue length does an incoming req see
system.mem_ctrls2.rdQLenPdf::30                  2926                       # What read queue length does an incoming req see
system.mem_ctrls2.rdQLenPdf::31                 66205                       # What read queue length does an incoming req see
system.mem_ctrls2.wrQLenPdf::0                  16326                       # What write queue length does an incoming req see
system.mem_ctrls2.wrQLenPdf::1                  17872                       # What write queue length does an incoming req see
system.mem_ctrls2.wrQLenPdf::2                  18557                       # What write queue length does an incoming req see
system.mem_ctrls2.wrQLenPdf::3                  19041                       # What write queue length does an incoming req see
system.mem_ctrls2.wrQLenPdf::4                  19619                       # What write queue length does an incoming req see
system.mem_ctrls2.wrQLenPdf::5                   8122                       # What write queue length does an incoming req see
system.mem_ctrls2.wrQLenPdf::6                   9215                       # What write queue length does an incoming req see
system.mem_ctrls2.wrQLenPdf::7                  13535                       # What write queue length does an incoming req see
system.mem_ctrls2.bytesPerActivate::samples        75127                       # Bytes accessed per row activation
system.mem_ctrls2.bytesPerActivate::mean   269.315905                       # Bytes accessed per row activation
system.mem_ctrls2.bytesPerActivate::gmean   196.292811                       # Bytes accessed per row activation
system.mem_ctrls2.bytesPerActivate::stdev   225.035140                       # Bytes accessed per row activation
system.mem_ctrls2.bytesPerActivate::0-127        18416     24.51%     24.51% # Bytes accessed per row activation
system.mem_ctrls2.bytesPerActivate::128-255        19590     26.08%     50.59% # Bytes accessed per row activation
system.mem_ctrls2.bytesPerActivate::256-383        22003     29.29%     79.88% # Bytes accessed per row activation
system.mem_ctrls2.bytesPerActivate::384-511         5259      7.00%     86.88% # Bytes accessed per row activation
system.mem_ctrls2.bytesPerActivate::512-639         3625      4.83%     91.70% # Bytes accessed per row activation
system.mem_ctrls2.bytesPerActivate::640-767         1819      2.42%     94.12% # Bytes accessed per row activation
system.mem_ctrls2.bytesPerActivate::768-895         1169      1.56%     95.68% # Bytes accessed per row activation
system.mem_ctrls2.bytesPerActivate::896-1023          786      1.05%     96.73% # Bytes accessed per row activation
system.mem_ctrls2.bytesPerActivate::1024-1151         2460      3.27%    100.00% # Bytes accessed per row activation
system.mem_ctrls2.bytesPerActivate::total        75127                       # Bytes accessed per row activation
system.mem_ctrls2.rdPerTurnAround::samples        17068                       # Reads before turning the bus around for writes
system.mem_ctrls2.rdPerTurnAround::mean     11.357335                       # Reads before turning the bus around for writes
system.mem_ctrls2.rdPerTurnAround::stdev    26.624561                       # Reads before turning the bus around for writes
system.mem_ctrls2.rdPerTurnAround::0-127        17062     99.96%     99.96% # Reads before turning the bus around for writes
system.mem_ctrls2.rdPerTurnAround::128-255            4      0.02%     99.99% # Reads before turning the bus around for writes
system.mem_ctrls2.rdPerTurnAround::1152-1279            1      0.01%     99.99% # Reads before turning the bus around for writes
system.mem_ctrls2.rdPerTurnAround::2816-2943            1      0.01%    100.00% # Reads before turning the bus around for writes
system.mem_ctrls2.rdPerTurnAround::total        17068                       # Reads before turning the bus around for writes
system.mem_ctrls2.wrPerTurnAround::samples        17068                       # Writes before turning the bus around for reads
system.mem_ctrls2.wrPerTurnAround::mean      7.164460                       # Writes before turning the bus around for reads
system.mem_ctrls2.wrPerTurnAround::gmean     6.497805                       # Writes before turning the bus around for reads
system.mem_ctrls2.wrPerTurnAround::stdev     3.608153                       # Writes before turning the bus around for reads
system.mem_ctrls2.wrPerTurnAround::4-7          12138     71.12%     71.12% # Writes before turning the bus around for reads
system.mem_ctrls2.wrPerTurnAround::8-11          2141     12.54%     83.66% # Writes before turning the bus around for reads
system.mem_ctrls2.wrPerTurnAround::12-15         1673      9.80%     93.46% # Writes before turning the bus around for reads
system.mem_ctrls2.wrPerTurnAround::16-19         1116      6.54%    100.00% # Writes before turning the bus around for reads
system.mem_ctrls2.wrPerTurnAround::total        17068                       # Writes before turning the bus around for reads
system.mem_ctrls2.totQLat                 31067798426                       # Total ticks spent queuing
system.mem_ctrls2.totMemAccLat            34702673426                       # Total ticks spent from burst creation until serviced by the DRAM
system.mem_ctrls2.totBusLat                 969300000                       # Total ticks spent in databus transfers
system.mem_ctrls2.avgQLat                   160258.94                       # Average queueing delay per DRAM burst
system.mem_ctrls2.avgBusLat                   5000.00                       # Average bus latency per DRAM burst
system.mem_ctrls2.avgMemAccLat              179008.94                       # Average memory access latency per DRAM burst
system.mem_ctrls2.avgRdBW                      218.69                       # Average DRAM read bandwidth in MiByte/s
system.mem_ctrls2.avgWrBW                      137.95                       # Average achieved write bandwidth in MiByte/s
system.mem_ctrls2.avgRdBWSys                   218.72                       # Average system read bandwidth in MiByte/s
system.mem_ctrls2.avgWrBWSys                   137.95                       # Average system write bandwidth in MiByte/s
system.mem_ctrls2.peakBW                     12800.00                       # Theoretical peak bandwidth in MiByte/s
system.mem_ctrls2.busUtil                        2.79                       # Data bus utilization in percentage
system.mem_ctrls2.busUtilRead                    1.71                       # Data bus utilization in percentage for reads
system.mem_ctrls2.busUtilWrite                   1.08                       # Data bus utilization in percentage for writes
system.mem_ctrls2.avgRdQLen                      1.57                       # Average read queue length when enqueuing
system.mem_ctrls2.avgWrQLen                      2.93                       # Average write queue length when enqueuing
system.mem_ctrls2.readRowHits                  154319                       # Number of row buffer hits during reads
system.mem_ctrls2.writeRowHits                  86693                       # Number of row buffer hits during writes
system.mem_ctrls2.readRowHitRate                79.60                       # Row buffer hit rate for reads
system.mem_ctrls2.writeRowHitRate               70.89                       # Row buffer hit rate for writes
system.mem_ctrls2.avgGap                    179438.04                       # Average gap between requests
system.mem_ctrls2.pageHitRate                   76.23                       # Row buffer hit rate, read and write combined
system.mem_ctrls2.memoryStateTime::IDLE   11875328750                       # Time in different power states
system.mem_ctrls2.memoryStateTime::REF     1894360000                       # Time in different power states
system.mem_ctrls2.memoryStateTime::PRE_PDN            0                       # Time in different power states
system.mem_ctrls2.memoryStateTime::ACT    42961543250                       # Time in different power states
system.mem_ctrls2.memoryStateTime::ACT_PDN            0                       # Time in different power states
system.mem_ctrls2.actEnergy::0              286433280                       # Energy for activate commands per rank (pJ)
system.mem_ctrls2.actEnergy::1              281504160                       # Energy for activate commands per rank (pJ)
system.mem_ctrls2.preEnergy::0              156288000                       # Energy for precharge commands per rank (pJ)
system.mem_ctrls2.preEnergy::1              153598500                       # Energy for precharge commands per rank (pJ)
system.mem_ctrls2.readEnergy::0             755157000                       # Energy for read commands per rank (pJ)
system.mem_ctrls2.readEnergy::1             756873000                       # Energy for read commands per rank (pJ)
system.mem_ctrls2.writeEnergy::0            396102960                       # Energy for write commands per rank (pJ)
system.mem_ctrls2.writeEnergy::1            396290880                       # Energy for write commands per rank (pJ)
system.mem_ctrls2.refreshEnergy::0         3705368160                       # Energy for refresh commands per rank (pJ)
system.mem_ctrls2.refreshEnergy::1         3705368160                       # Energy for refresh commands per rank (pJ)
system.mem_ctrls2.actBackEnergy::0        21835992915                       # Energy for active background per rank (pJ)
system.mem_ctrls2.actBackEnergy::1        21337811775                       # Energy for active background per rank (pJ)
system.mem_ctrls2.preBackEnergy::0        14884162500                       # Energy for precharge background per rank (pJ)
system.mem_ctrls2.preBackEnergy::1        15321163500                       # Energy for precharge background per rank (pJ)
system.mem_ctrls2.totalEnergy::0          42019504815                       # Total energy per rank (pJ)
system.mem_ctrls2.totalEnergy::1          41952609975                       # Total energy per rank (pJ)
system.mem_ctrls2.averagePower::0          740.681040                       # Core power per rank (mW)
system.mem_ctrls2.averagePower::1          739.501880                       # Core power per rank (mW)
system.mem_ctrls3.bytes_read::ruby.dir_cntrl3     12387968                       # Number of bytes read from this memory
system.mem_ctrls3.bytes_read::total          12387968                       # Number of bytes read from this memory
system.mem_ctrls3.bytes_written::ruby.dir_cntrl3      7824192                       # Number of bytes written to this memory
system.mem_ctrls3.bytes_written::total        7824192                       # Number of bytes written to this memory
system.mem_ctrls3.num_reads::ruby.dir_cntrl3       193562                       # Number of read requests responded to by this memory
system.mem_ctrls3.num_reads::total             193562                       # Number of read requests responded to by this memory
system.mem_ctrls3.num_writes::ruby.dir_cntrl3       122253                       # Number of write requests responded to by this memory
system.mem_ctrls3.num_writes::total            122253                       # Number of write requests responded to by this memory
system.mem_ctrls3.bw_read::ruby.dir_cntrl3    218355605                       # Total read bandwidth from this memory (bytes/s)
system.mem_ctrls3.bw_read::total            218355605                       # Total read bandwidth from this memory (bytes/s)
system.mem_ctrls3.bw_write::ruby.dir_cntrl3    137912544                       # Write bandwidth from this memory (bytes/s)
system.mem_ctrls3.bw_write::total           137912544                       # Write bandwidth from this memory (bytes/s)
system.mem_ctrls3.bw_total::ruby.dir_cntrl3    356268149                       # Total bandwidth to/from this memory (bytes/s)
system.mem_ctrls3.bw_total::total           356268149                       # Total bandwidth to/from this memory (bytes/s)
system.mem_ctrls3.readReqs                     193562                       # Number of read requests accepted
system.mem_ctrls3.writeReqs                    122253                       # Number of write requests accepted
system.mem_ctrls3.readBursts                   193562                       # Number of DRAM read bursts, including those serviced by the write queue
system.mem_ctrls3.writeBursts                  122253                       # Number of DRAM write bursts, including those merged in the write queue
system.mem_ctrls3.bytesReadDRAM              12386816                       # Total number of bytes read from DRAM
system.mem_ctrls3.bytesReadWrQ                   1152                       # Total number of bytes read from write queue
system.mem_ctrls3.bytesWritten                7823936                       # Total number of bytes written to DRAM
system.mem_ctrls3.bytesReadSys               12387968                       # Total read bytes from the system interface side
system.mem_ctrls3.bytesWrittenSys             7824192                       # Total written bytes from the system interface side
system.mem_ctrls3.servicedByWrQ                    18                       # Number of DRAM read bursts serviced by the write queue
system.mem_ctrls3.mergedWrBursts                    0                       # Number of DRAM write bursts merged with an existing one
system.mem_ctrls3.neitherReadNorWriteReqs            0                       # Number of requests that are neither read nor write
system.mem_ctrls3.perBankRdBursts::0            11871                       # Per bank write bursts
system.mem_ctrls3.perBankRdBursts::1            11964                       # Per bank write bursts
system.mem_ctrls3.perBankRdBursts::2            11804                       # Per bank write bursts
system.mem_ctrls3.perBankRdBursts::3            12185                       # Per bank write bursts
system.mem_ctrls3.perBankRdBursts::4            11960                       # Per bank write bursts
system.mem_ctrls3.perBankRdBursts::5            12063                       # Per bank write bursts
system.mem_ctrls3.perBankRdBursts::6            12271                       # Per bank write bursts
system.mem_ctrls3.perBankRdBursts::7            12445                       # Per bank write bursts
system.mem_ctrls3.perBankRdBursts::8            12197                       # Per bank write bursts
system.mem_ctrls3.perBankRdBursts::9            12536                       # Per bank write bursts
system.mem_ctrls3.perBankRdBursts::10           12232                       # Per bank write bursts
system.mem_ctrls3.perBankRdBursts::11           12510                       # Per bank write bursts
system.mem_ctrls3.perBankRdBursts::12           12032                       # Per bank write bursts
system.mem_ctrls3.perBankRdBursts::13           11772                       # Per bank write bursts
system.mem_ctrls3.perBankRdBursts::14           11995                       # Per bank write bursts
system.mem_ctrls3.perBankRdBursts::15           11707                       # Per bank write bursts
system.mem_ctrls3.perBankWrBursts::0             7589                       # Per bank write bursts
system.mem_ctrls3.perBankWrBursts::1             7453                       # Per bank write bursts
system.mem_ctrls3.perBankWrBursts::2             7590                       # Per bank write bursts
system.mem_ctrls3.perBankWrBursts::3             7628                       # Per bank write bursts
system.mem_ctrls3.perBankWrBursts::4             7592                       # Per bank write bursts
system.mem_ctrls3.perBankWrBursts::5             7672                       # Per bank write bursts
system.mem_ctrls3.perBankWrBursts::6             7767                       # Per bank write bursts
system.mem_ctrls3.perBankWrBursts::7             7804                       # Per bank write bursts
system.mem_ctrls3.perBankWrBursts::8             7718                       # Per bank write bursts
system.mem_ctrls3.perBankWrBursts::9             7862                       # Per bank write bursts
system.mem_ctrls3.perBankWrBursts::10            7665                       # Per bank write bursts
system.mem_ctrls3.perBankWrBursts::11            7727                       # Per bank write bursts
system.mem_ctrls3.perBankWrBursts::12            7553                       # Per bank write bursts
system.mem_ctrls3.perBankWrBursts::13            7596                       # Per bank write bursts
system.mem_ctrls3.perBankWrBursts::14            7611                       # Per bank write bursts
system.mem_ctrls3.perBankWrBursts::15            7422                       # Per bank write bursts
system.mem_ctrls3.numRdRetry                    60099                       # Number of times read queue was full causing retry
system.mem_ctrls3.numWrRetry                     6628                       # Number of times write queue was full causing retry
system.mem_ctrls3.totGap                  56731937000                       # Total gap between requests
system.mem_ctrls3.readPktSize::0                    0                       # Read request sizes (log2)
system.mem_ctrls3.readPktSize::1                    0                       # Read request sizes (log2)
system.mem_ctrls3.readPktSize::2                    0                       # Read request sizes (log2)
system.mem_ctrls3.readPktSize::3                    0                       # Read request sizes (log2)
system.mem_ctrls3.readPktSize::4                    0                       # Read request sizes (log2)
system.mem_ctrls3.readPktSize::5                    0                       # Read request sizes (log2)
system.mem_ctrls3.readPktSize::6               193562                       # Read request sizes (log2)
system.mem_ctrls3.writePktSize::0                   0                       # Write request sizes (log2)
system.mem_ctrls3.writePktSize::1                   0                       # Write request sizes (log2)
system.mem_ctrls3.writePktSize::2                   0                       # Write request sizes (log2)
system.mem_ctrls3.writePktSize::3                   0                       # Write request sizes (log2)
system.mem_ctrls3.writePktSize::4                   0                       # Write request sizes (log2)
system.mem_ctrls3.writePktSize::5                   0                       # Write request sizes (log2)
system.mem_ctrls3.writePktSize::6              122253                       # Write request sizes (log2)
system.mem_ctrls3.rdQLenPdf::0                  67450                       # What read queue length does an incoming req see
system.mem_ctrls3.rdQLenPdf::1                   1686                       # What read queue length does an incoming req see
system.mem_ctrls3.rdQLenPdf::2                   1411                       # What read queue length does an incoming req see
system.mem_ctrls3.rdQLenPdf::3                   1541                       # What read queue length does an incoming req see
system.mem_ctrls3.rdQLenPdf::4                   1592                       # What read queue length does an incoming req see
system.mem_ctrls3.rdQLenPdf::5                   1641                       # What read queue length does an incoming req see
system.mem_ctrls3.rdQLenPdf::6                   1745                       # What read queue length does an incoming req see
system.mem_ctrls3.rdQLenPdf::7                   1857                       # What read queue length does an incoming req see
system.mem_ctrls3.rdQLenPdf::8                   1910                       # What read queue length does an incoming req see
system.mem_ctrls3.rdQLenPdf::9                   2001                       # What read queue length does an incoming req see
system.mem_ctrls3.rdQLenPdf::10                  2049                       # What read queue length does an incoming req see
system.mem_ctrls3.rdQLenPdf::11                  2112                       # What read queue length does an incoming req see
system.mem_ctrls3.rdQLenPdf::12                  2112                       # What read queue length does an incoming req see
system.mem_ctrls3.rdQLenPdf::13                  2072                       # What read queue length does an incoming req see
system.mem_ctrls3.rdQLenPdf::14                  2113                       # What read queue length does an incoming req see
system.mem_ctrls3.rdQLenPdf::15                  2101                       # What read queue length does an incoming req see
system.mem_ctrls3.rdQLenPdf::16                  2095                       # What read queue length does an incoming req see
system.mem_ctrls3.rdQLenPdf::17                  2127                       # What read queue length does an incoming req see
system.mem_ctrls3.rdQLenPdf::18                  2150                       # What read queue length does an incoming req see
system.mem_ctrls3.rdQLenPdf::19                  2070                       # What read queue length does an incoming req see
system.mem_ctrls3.rdQLenPdf::20                  2088                       # What read queue length does an incoming req see
system.mem_ctrls3.rdQLenPdf::21                  2196                       # What read queue length does an incoming req see
system.mem_ctrls3.rdQLenPdf::22                  2199                       # What read queue length does an incoming req see
system.mem_ctrls3.rdQLenPdf::23                  2140                       # What read queue length does an incoming req see
system.mem_ctrls3.rdQLenPdf::24                  2220                       # What read queue length does an incoming req see
[...]
system.ruby.L2Cache_Controller.IM.L1_GETX::total            1                      
system.ruby.L2Cache_Controller.IM.Mem_Data |       14974      3.14%      3.14% |       14885      3.12%      6.26% |       14890      3.12%      9.39% |       14891      3.12%     12.51% |       14883      3.12%     15.63% |       14891      3.12%     18.76% |       14894      3.12%     21.88% |       14887      3.12%     25.00% |       14895      3.12%     28.13% |       14899      3.13%     31.25% |       14880      3.12%     34.38% |       14902      3.13%     37.50% |       14892      3.12%     40.63% |       14893      3.12%     43.75% |       14888      3.12%     46.87% |       14883      3.12%     49.99% |       14924      3.13%     53.12% |       14897      3.12%     56.25% |       14896      3.12%     59.37% |       14900      3.13%     62.50% |       14913      3.13%     65.63% |       14921      3.13%     68.76% |       14885      3.12%     71.88% |       14897      3.12%     75.01% |       14907      3.13%     78.13% |       14899      3.13%     81.26% |       14902      3.13%     84.38% |       14893      3.12%     87.51% |       14887      3.12%     90.63% |       14883      3.12%     93.75% |       14895      3.12%     96.88% |       14882      3.12%    100.00%
system.ruby.L2Cache_Controller.IM.Mem_Data::total       476708                      
system.ruby.L2Cache_Controller.SS_MB.Exclusive_Unblock |           3      6.12%      6.12% |           6     12.24%     18.37% |           2      4.08%     22.45% |           3      6.12%     28.57% |           0      0.00%     28.57% |           0      0.00%     28.57% |           0      0.00%     28.57% |           0      0.00%     28.57% |           1      2.04%     30.61% |           0      0.00%     30.61% |           0      0.00%     30.61% |           1      2.04%     32.65% |           4      8.16%     40.82% |           0      0.00%     40.82% |           2      4.08%     44.90% |           0      0.00%     44.90% |           1      2.04%     46.94% |           2      4.08%     51.02% |          13     26.53%     77.55% |           3      6.12%     83.67% |           0      0.00%     83.67% |           0      0.00%     83.67% |           0      0.00%     83.67% |           0      0.00%     83.67% |           1      2.04%     85.71% |           0      0.00%     85.71% |           3      6.12%     91.84% |           4      8.16%    100.00% |           0      0.00%    100.00% |           0      0.00%    100.00% |           0      0.00%    100.00% |           0      0.00%    100.00%
system.ruby.L2Cache_Controller.SS_MB.Exclusive_Unblock::total           49                      
system.ruby.L2Cache_Controller.MT_MB.L1_GETX |           1    100.00%    100.00% |           0      0.00%    100.00% |           0      0.00%    100.00% |           0      0.00%    100.00% |           0      0.00%    100.00% |           0      0.00%    100.00% |           0      0.00%    100.00% |           0      0.00%    100.00% |           0      0.00%    100.00% |           0      0.00%    100.00% |           0      0.00%    100.00% |           0      0.00%    100.00% |           0      0.00%    100.00% |           0      0.00%    100.00% |           0      0.00%    100.00% |           0      0.00%    100.00% |           0      0.00%    100.00% |           0      0.00%    100.00% |           0      0.00%    100.00% |           0      0.00%    100.00% |           0      0.00%    100.00% |           0      0.00%    100.00% |           0      0.00%    100.00% |           0      0.00%    100.00% |           0      0.00%    100.00% |           0      0.00%    100.00% |           0      0.00%    100.00% |           0      0.00%    100.00% |           0      0.00%    100.00% |           0      0.00%    100.00% |           0      0.00%    100.00% |           0      0.00%    100.00%
system.ruby.L2Cache_Controller.MT_MB.L1_GETX::total            1                      
system.ruby.L2Cache_Controller.MT_MB.Exclusive_Unblock |       75916      7.22%      7.22% |       32861      3.13%     10.35% |       29493      2.81%     13.16% |       32395      3.08%     16.24% |       29787      2.83%     19.07% |       29678      2.82%     21.90% |       29096      2.77%     24.66% |       29698      2.83%     27.49% |       30396      2.89%     30.38% |       29991      2.85%     33.23% |       32545      3.10%     36.33% |       30867      2.94%     39.27% |       30523      2.90%     42.17% |       30306      2.88%     45.06% |       29597      2.82%     47.87% |       30195      2.87%     50.74% |       31505      3.00%     53.74% |       30315      2.88%     56.63% |       30920      2.94%     59.57% |       31639      3.01%     62.58% |       32123      3.06%     65.63% |       37030      3.52%     69.16% |       31246      2.97%     72.13% |       31250      2.97%     75.10% |       31253      2.97%     78.08% |       31240      2.97%     81.05% |       31174      2.97%     84.02% |       30877      2.94%     86.95% |       32697      3.11%     90.06% |       32156      3.06%     93.12% |       34136      3.25%     96.37% |       38135      3.63%    100.00%
system.ruby.L2Cache_Controller.MT_MB.Exclusive_Unblock::total      1051040                      
system.ruby.L2Cache_Controller.MT_IIB.L1_PUTX |           1    100.00%    100.00% |           0      0.00%    100.00% |           0      0.00%    100.00% |           0      0.00%    100.00% |           0      0.00%    100.00% |           0      0.00%    100.00% |           0      0.00%    100.00% |           0      0.00%    100.00% |           0      0.00%    100.00% |           0      0.00%    100.00% |           0      0.00%    100.00% |           0      0.00%    100.00% |           0      0.00%    100.00% |           0      0.00%    100.00% |           0      0.00%    100.00% |           0      0.00%    100.00% |           0      0.00%    100.00% |           0      0.00%    100.00% |           0      0.00%    100.00% |           0      0.00%    100.00% |           0      0.00%    100.00% |           0      0.00%    100.00% |           0      0.00%    100.00% |           0      0.00%    100.00% |           0      0.00%    100.00% |           0      0.00%    100.00% |           0      0.00%    100.00% |           0      0.00%    100.00% |           0      0.00%    100.00% |           0      0.00%    100.00% |           0      0.00%    100.00% |           0      0.00%    100.00%
system.ruby.L2Cache_Controller.MT_IIB.L1_PUTX::total            1                      
system.ruby.L2Cache_Controller.MT_IIB.WB_Data |           1      1.25%      1.25% |           2      2.50%      3.75% |           1      1.25%      5.00% |           3      3.75%      8.75% |           3      3.75%     12.50% |           3      3.75%     16.25% |           4      5.00%     21.25% |           3      3.75%     25.00% |           5      6.25%     31.25% |           3      3.75%     35.00% |           2      2.50%     37.50% |           2      2.50%     40.00% |           3      3.75%     43.75% |           3      3.75%     47.50% |           4      5.00%     52.50% |           3      3.75%     56.25% |           3      3.75%     60.00% |           1      1.25%     61.25% |           2      2.50%     63.75% |           0      0.00%     63.75% |           1      1.25%     65.00% |           0      0.00%     65.00% |           1      1.25%     66.25% |           2      2.50%     68.75% |           3      3.75%     72.50% |           5      6.25%     78.75% |           4      5.00%     83.75% |           5      6.25%     90.00% |           3      3.75%     93.75% |           1      1.25%     95.00% |           2      2.50%     97.50% |           2      2.50%    100.00%
system.ruby.L2Cache_Controller.MT_IIB.WB_Data::total           80                      
system.ruby.L2Cache_Controller.MT_IIB.WB_Data_clean |          27     38.57%     38.57% |           0      0.00%     38.57% |           0      0.00%     38.57% |          15     21.43%     60.00% |           0      0.00%     60.00% |           0      0.00%     60.00% |           0      0.00%     60.00% |           0      0.00%     60.00% |           0      0.00%     60.00% |           0      0.00%     60.00% |           0      0.00%     60.00% |           0      0.00%     60.00% |           0      0.00%     60.00% |           0      0.00%     60.00% |           0      0.00%     60.00% |           0      0.00%     60.00% |          12     17.14%     77.14% |           0      0.00%     77.14% |           0      0.00%     77.14% |          14     20.00%     97.14% |           0      0.00%     97.14% |           0      0.00%     97.14% |           0      0.00%     97.14% |           0      0.00%     97.14% |           0      0.00%     97.14% |           0      0.00%     97.14% |           0      0.00%     97.14% |           2      2.86%    100.00% |           0      0.00%    100.00% |           0      0.00%    100.00% |           0      0.00%    100.00% |           0      0.00%    100.00%
system.ruby.L2Cache_Controller.MT_IIB.WB_Data_clean::total           70                      
system.ruby.L2Cache_Controller.MT_IIB.Unblock |           1     50.00%     50.00% |           0      0.00%     50.00% |           0      0.00%     50.00% |           0      0.00%     50.00% |           0      0.00%     50.00% |           0      0.00%     50.00% |           0      0.00%     50.00% |           0      0.00%     50.00% |           0      0.00%     50.00% |           0      0.00%     50.00% |           0      0.00%     50.00% |           0      0.00%     50.00% |           0      0.00%     50.00% |           0      0.00%     50.00% |           0      0.00%     50.00% |           0      0.00%     50.00% |           0      0.00%     50.00% |           0      0.00%     50.00% |           0      0.00%     50.00% |           0      0.00%     50.00% |           0      0.00%     50.00% |           0      0.00%     50.00% |           0      0.00%     50.00% |           0      0.00%     50.00% |           0      0.00%     50.00% |           0      0.00%     50.00% |           0      0.00%     50.00% |           0      0.00%     50.00% |           0      0.00%     50.00% |           1     50.00%    100.00% |           0      0.00%    100.00% |           0      0.00%    100.00%
system.ruby.L2Cache_Controller.MT_IIB.Unblock::total            2                      
system.ruby.L2Cache_Controller.MT_IB.WB_Data |           0      0.00%      0.00% |           0      0.00%      0.00% |           0      0.00%      0.00% |           0      0.00%      0.00% |           0      0.00%      0.00% |           0      0.00%      0.00% |           0      0.00%      0.00% |           0      0.00%      0.00% |           0      0.00%      0.00% |           0      0.00%      0.00% |           0      0.00%      0.00% |           0      0.00%      0.00% |           0      0.00%      0.00% |           0      0.00%      0.00% |           0      0.00%      0.00% |           0      0.00%      0.00% |           0      0.00%      0.00% |           0      0.00%      0.00% |           0      0.00%      0.00% |           0      0.00%      0.00% |           0      0.00%      0.00% |           0      0.00%      0.00% |           0      0.00%      0.00% |           0      0.00%      0.00% |           0      0.00%      0.00% |           0      0.00%      0.00% |           0      0.00%      0.00% |           0      0.00%      0.00% |           0      0.00%      0.00% |           1    100.00%    100.00% |           0      0.00%    100.00% |           0      0.00%    100.00%
system.ruby.L2Cache_Controller.MT_IB.WB_Data::total            1                      
system.ruby.L2Cache_Controller.MT_IB.WB_Data_clean |           1    100.00%    100.00% |           0      0.00%    100.00% |           0      0.00%    100.00% |           0      0.00%    100.00% |           0      0.00%    100.00% |           0      0.00%    100.00% |           0      0.00%    100.00% |           0      0.00%    100.00% |           0      0.00%    100.00% |           0      0.00%    100.00% |           0      0.00%    100.00% |           0      0.00%    100.00% |           0      0.00%    100.00% |           0      0.00%    100.00% |           0      0.00%    100.00% |           0      0.00%    100.00% |           0      0.00%    100.00% |           0      0.00%    100.00% |           0      0.00%    100.00% |           0      0.00%    100.00% |           0      0.00%    100.00% |           0      0.00%    100.00% |           0      0.00%    100.00% |           0      0.00%    100.00% |           0      0.00%    100.00% |           0      0.00%    100.00% |           0      0.00%    100.00% |           0      0.00%    100.00% |           0      0.00%    100.00% |           0      0.00%    100.00% |           0      0.00%    100.00% |           0      0.00%    100.00%
system.ruby.L2Cache_Controller.MT_IB.WB_Data_clean::total            1                      
system.ruby.L2Cache_Controller.MT_SB.Unblock |          28     18.67%     18.67% |           2      1.33%     20.00% |           1      0.67%     20.67% |          18     12.00%     32.67% |           3      2.00%     34.67% |           3      2.00%     36.67% |           4      2.67%     39.33% |           3      2.00%     41.33% |           5      3.33%     44.67% |           3      2.00%     46.67% |           2      1.33%     48.00% |           2      1.33%     49.33% |           3      2.00%     51.33% |           3      2.00%     53.33% |           4      2.67%     56.00% |           3      2.00%     58.00% |          15     10.00%     68.00% |           1      0.67%     68.67% |           2      1.33%     70.00% |          14      9.33%     79.33% |           1      0.67%     80.00% |           0      0.00%     80.00% |           1      0.67%     80.67% |           2      1.33%     82.00% |           3      2.00%     84.00% |           5      3.33%     87.33% |           4      2.67%     90.00% |           7      4.67%     94.67% |           3      2.00%     96.67% |           1      0.67%     97.33% |           2      1.33%     98.67% |           2      1.33%    100.00%
system.ruby.L2Cache_Controller.MT_SB.Unblock::total          150                      
system.ruby.SimicsNetworkPortInterface_Controller.MessageSend |       49449     16.17%     16.17% |      152860     50.00%     66.17% |       12862      4.21%     70.38% |       13837      4.53%     74.91% |       12858      4.21%     79.11% |       13937      4.56%     83.67% |       12875      4.21%     87.88% |       13854      4.53%     92.42% |       11261      3.68%     96.10% |       11927      3.90%    100.00% |           0      0.00%    100.00% |           0      0.00%    100.00% |           0      0.00%    100.00% |           0      0.00%    100.00% |           0      0.00%    100.00% |           0      0.00%    100.00% |           0      0.00%    100.00% |           0      0.00%    100.00% |           0      0.00%    100.00% |           0      0.00%    100.00% |           0      0.00%    100.00% |           0      0.00%    100.00% |           0      0.00%    100.00% |           0      0.00%    100.00% |           0      0.00%    100.00% |           0      0.00%    100.00% |           0      0.00%    100.00% |           0      0.00%    100.00% |           0      0.00%    100.00% |           0      0.00%    100.00% |           0      0.00%    100.00% |           0      0.00%    100.00%
system.ruby.SimicsNetworkPortInterface_Controller.MessageSend::total       305720                      
system.ruby.SimicsNetworkPortInterface_Controller.MessageRecv |       49449     16.17%     16.17% |      152860     50.00%     66.17% |       12862      4.21%     70.38% |       13837      4.53%     74.91% |       12858      4.21%     79.11% |       13937      4.56%     83.67% |       12875      4.21%     87.88% |       13854      4.53%     92.42% |       11261      3.68%     96.10% |       11927      3.90%    100.00% |           0      0.00%    100.00% |           0      0.00%    100.00% |           0      0.00%    100.00% |           0      0.00%    100.00% |           0      0.00%    100.00% |           0      0.00%    100.00% |           0      0.00%    100.00% |           0      0.00%    100.00% |           0      0.00%    100.00% |           0      0.00%    100.00% |           0      0.00%    100.00% |           0      0.00%    100.00% |           0      0.00%    100.00% |           0      0.00%    100.00% |           0      0.00%    100.00% |           0      0.00%    100.00% |           0      0.00%    100.00% |           0      0.00%    100.00% |           0      0.00%    100.00% |           0      0.00%    100.00% |           0      0.00%    100.00% |           0      0.00%    100.00%
system.ruby.SimicsNetworkPortInterface_Controller.MessageRecv::total       305720                      
system.ruby.SimicsNetworkPortInterface_Controller.A.MessageSend |       49449     16.17%     16.17% |      152860     50.00%     66.17% |       12862      4.21%     70.38% |       13837      4.53%     74.91% |       12858      4.21%     79.11% |       13937      4.56%     83.67% |       12875      4.21%     87.88% |       13854      4.53%     92.42% |       11261      3.68%     96.10% |       11927      3.90%    100.00% |           0      0.00%    100.00% |           0      0.00%    100.00% |           0      0.00%    100.00% |           0      0.00%    100.00% |           0      0.00%    100.00% |           0      0.00%    100.00% |           0      0.00%    100.00% |           0      0.00%    100.00% |           0      0.00%    100.00% |           0      0.00%    100.00% |           0      0.00%    100.00% |           0      0.00%    100.00% |           0      0.00%    100.00% |           0      0.00%    100.00% |           0      0.00%    100.00% |           0      0.00%    100.00% |           0      0.00%    100.00% |           0      0.00%    100.00% |           0      0.00%    100.00% |           0      0.00%    100.00% |           0      0.00%    100.00% |           0      0.00%    100.00%
system.ruby.SimicsNetworkPortInterface_Controller.A.MessageSend::total       305720                      
system.ruby.SimicsNetworkPortInterface_Controller.A.MessageRecv |       49449     16.17%     16.17% |      152860     50.00%     66.17% |       12862      4.21%     70.38% |       13837      4.53%     74.91% |       12858      4.21%     79.11% |       13937      4.56%     83.67% |       12875      4.21%     87.88% |       13854      4.53%     92.42% |       11261      3.68%     96.10% |       11927      3.90%    100.00% |           0      0.00%    100.00% |           0      0.00%    100.00% |           0      0.00%    100.00% |           0      0.00%    100.00% |           0      0.00%    100.00% |           0      0.00%    100.00% |           0      0.00%    100.00% |           0      0.00%    100.00% |           0      0.00%    100.00% |           0      0.00%    100.00% |           0      0.00%    100.00% |           0      0.00%    100.00% |           0      0.00%    100.00% |           0      0.00%    100.00% |           0      0.00%    100.00% |           0      0.00%    100.00% |           0      0.00%    100.00% |           0      0.00%    100.00% |           0      0.00%    100.00% |           0      0.00%    100.00% |           0      0.00%    100.00% |           0      0.00%    100.00%
system.ruby.SimicsNetworkPortInterface_Controller.A.MessageRecv::total       305720                      
system.switch_cpus.kern.inst.arm                    0                       # number of arm instructions executed
system.switch_cpus.kern.inst.quiesce                0                       # number of quiesce instructions executed

---------- End Simulation Statistics   ----------
