
---------- Begin Simulation Statistics ----------
sim_seconds                                  0.038088                       # Number of seconds simulated
sim_ticks                                 38088046500                       # Number of ticks simulated
final_tick                               5214256125000                       # Number of ticks from beginning of simulation (restored from checkpoints and never reset)
sim_freq                                 1000000000000                       # Frequency of simulated ticks
host_inst_rate                                  67737                       # Simulator instruction rate (inst/s)
host_op_rate                                   121781                       # Simulator op (including micro ops) rate (op/s)
host_tick_rate                              105906125                       # Simulator tick rate (ticks/s)
host_mem_usage                                4787676                       # Number of bytes of host memory used
host_seconds                                   359.64                       # Real time elapsed on the host
sim_insts                                    24360891                       # Number of instructions simulated
sim_ops                                      43797399                       # Number of ops (including micro ops) simulated
system.voltage_domain.voltage                       1                       # Voltage in Volts
system.clk_domain.clock                           500                       # Clock period in ticks
system.mem_ctrls0.bytes_read::ruby.dir_cntrl0      4969600                       # Number of bytes read from this memory
system.mem_ctrls0.bytes_read::total           4969600                       # Number of bytes read from this memory
system.mem_ctrls0.bytes_written::ruby.dir_cntrl0      3965504                       # Number of bytes written to this memory
system.mem_ctrls0.bytes_written::total        3965504                       # Number of bytes written to this memory
system.mem_ctrls0.num_reads::ruby.dir_cntrl0        77650                       # Number of read requests responded to by this memory
system.mem_ctrls0.num_reads::total              77650                       # Number of read requests responded to by this memory
system.mem_ctrls0.num_writes::ruby.dir_cntrl0        61961                       # Number of write requests responded to by this memory
system.mem_ctrls0.num_writes::total             61961                       # Number of write requests responded to by this memory
system.mem_ctrls0.bw_read::ruby.dir_cntrl0    130476631                       # Total read bandwidth from this memory (bytes/s)
system.mem_ctrls0.bw_read::total            130476631                       # Total read bandwidth from this memory (bytes/s)
system.mem_ctrls0.bw_write::ruby.dir_cntrl0    104114135                       # Write bandwidth from this memory (bytes/s)
system.mem_ctrls0.bw_write::total           104114135                       # Write bandwidth from this memory (bytes/s)
system.mem_ctrls0.bw_total::ruby.dir_cntrl0    234590766                       # Total bandwidth to/from this memory (bytes/s)
system.mem_ctrls0.bw_total::total           234590766                       # Total bandwidth to/from this memory (bytes/s)
system.mem_ctrls0.readReqs                      77650                       # Number of read requests accepted
system.mem_ctrls0.writeReqs                     61961                       # Number of write requests accepted
system.mem_ctrls0.readBursts                    77650                       # Number of DRAM read bursts, including those serviced by the write queue
system.mem_ctrls0.writeBursts                   61961                       # Number of DRAM write bursts, including those merged in the write queue
system.mem_ctrls0.bytesReadDRAM               4968128                       # Total number of bytes read from DRAM
system.mem_ctrls0.bytesReadWrQ                   1472                       # Total number of bytes read from write queue
system.mem_ctrls0.bytesWritten                3965376                       # Total number of bytes written to DRAM
system.mem_ctrls0.bytesReadSys                4969600                       # Total read bytes from the system interface side
system.mem_ctrls0.bytesWrittenSys             3965504                       # Total written bytes from the system interface side
system.mem_ctrls0.servicedByWrQ                    23                       # Number of DRAM read bursts serviced by the write queue
system.mem_ctrls0.mergedWrBursts                    0                       # Number of DRAM write bursts merged with an existing one
system.mem_ctrls0.neitherReadNorWriteReqs            0                       # Number of requests that are neither read nor write
system.mem_ctrls0.perBankRdBursts::0             4394                       # Per bank write bursts
system.mem_ctrls0.perBankRdBursts::1             4842                       # Per bank write bursts
system.mem_ctrls0.perBankRdBursts::2             4549                       # Per bank write bursts
system.mem_ctrls0.perBankRdBursts::3             4967                       # Per bank write bursts
system.mem_ctrls0.perBankRdBursts::4             4853                       # Per bank write bursts
system.mem_ctrls0.perBankRdBursts::5             5351                       # Per bank write bursts
system.mem_ctrls0.perBankRdBursts::6             4945                       # Per bank write bursts
system.mem_ctrls0.perBankRdBursts::7             5223                       # Per bank write bursts
system.mem_ctrls0.perBankRdBursts::8             5044                       # Per bank write bursts
system.mem_ctrls0.perBankRdBursts::9             5208                       # Per bank write bursts
system.mem_ctrls0.perBankRdBursts::10            4618                       # Per bank write bursts
system.mem_ctrls0.perBankRdBursts::11            4794                       # Per bank write bursts
system.mem_ctrls0.perBankRdBursts::12            4591                       # Per bank write bursts
system.mem_ctrls0.perBankRdBursts::13            4630                       # Per bank write bursts
system.mem_ctrls0.perBankRdBursts::14            4802                       # Per bank write bursts
system.mem_ctrls0.perBankRdBursts::15            4816                       # Per bank write bursts
system.mem_ctrls0.perBankWrBursts::0             3621                       # Per bank write bursts
system.mem_ctrls0.perBankWrBursts::1             3570                       # Per bank write bursts
system.mem_ctrls0.perBankWrBursts::2             3647                       # Per bank write bursts
system.mem_ctrls0.perBankWrBursts::3             3794                       # Per bank write bursts
system.mem_ctrls0.perBankWrBursts::4             3862                       # Per bank write bursts
system.mem_ctrls0.perBankWrBursts::5             4191                       # Per bank write bursts
system.mem_ctrls0.perBankWrBursts::6             3925                       # Per bank write bursts
system.mem_ctrls0.perBankWrBursts::7             4185                       # Per bank write bursts
system.mem_ctrls0.perBankWrBursts::8             4056                       # Per bank write bursts
system.mem_ctrls0.perBankWrBursts::9             4138                       # Per bank write bursts
system.mem_ctrls0.perBankWrBursts::10            3698                       # Per bank write bursts
system.mem_ctrls0.perBankWrBursts::11            3637                       # Per bank write bursts
system.mem_ctrls0.perBankWrBursts::12            3795                       # Per bank write bursts
system.mem_ctrls0.perBankWrBursts::13            3901                       # Per bank write bursts
system.mem_ctrls0.perBankWrBursts::14            4031                       # Per bank write bursts
system.mem_ctrls0.perBankWrBursts::15            3908                       # Per bank write bursts
system.mem_ctrls0.numRdRetry                        1                       # Number of times read queue was full causing retry
system.mem_ctrls0.numWrRetry                      158                       # Number of times write queue was full causing retry
system.mem_ctrls0.totGap                  38087567000                       # Total gap between requests
system.mem_ctrls0.readPktSize::0                    0                       # Read request sizes (log2)
system.mem_ctrls0.readPktSize::1                    0                       # Read request sizes (log2)
system.mem_ctrls0.readPktSize::2                    0                       # Read request sizes (log2)
system.mem_ctrls0.readPktSize::3                    0                       # Read request sizes (log2)
system.mem_ctrls0.readPktSize::4                    0                       # Read request sizes (log2)
system.mem_ctrls0.readPktSize::5                    0                       # Read request sizes (log2)
system.mem_ctrls0.readPktSize::6                77650                       # Read request sizes (log2)
system.mem_ctrls0.writePktSize::0                   0                       # Write request sizes (log2)
system.mem_ctrls0.writePktSize::1                   0                       # Write request sizes (log2)
system.mem_ctrls0.writePktSize::2                   0                       # Write request sizes (log2)
system.mem_ctrls0.writePktSize::3                   0                       # Write request sizes (log2)
system.mem_ctrls0.writePktSize::4                   0                       # Write request sizes (log2)
system.mem_ctrls0.writePktSize::5                   0                       # Write request sizes (log2)
system.mem_ctrls0.writePktSize::6               61961                       # Write request sizes (log2)
system.mem_ctrls0.rdQLenPdf::0                  60054                       # What read queue length does an incoming req see
system.mem_ctrls0.rdQLenPdf::1                  10559                       # What read queue length does an incoming req see
system.mem_ctrls0.rdQLenPdf::2                   3445                       # What read queue length does an incoming req see
system.mem_ctrls0.rdQLenPdf::3                   1422                       # What read queue length does an incoming req see
system.mem_ctrls0.rdQLenPdf::4                    752                       # What read queue length does an incoming req see
system.mem_ctrls0.rdQLenPdf::5                    443                       # What read queue length does an incoming req see
system.mem_ctrls0.rdQLenPdf::6                    295                       # What read queue length does an incoming req see
system.mem_ctrls0.rdQLenPdf::7                    165                       # What read queue length does an incoming req see
system.mem_ctrls0.rdQLenPdf::8                    101                       # What read queue length does an incoming req see
system.mem_ctrls0.rdQLenPdf::9                     72                       # What read queue length does an incoming req see
system.mem_ctrls0.rdQLenPdf::10                    50                       # What read queue length does an incoming req see
system.mem_ctrls0.rdQLenPdf::11                    43                       # What read queue length does an incoming req see
system.mem_ctrls0.rdQLenPdf::12                    31                       # What read queue length does an incoming req see
system.mem_ctrls0.rdQLenPdf::13                    28                       # What read queue length does an incoming req see
system.mem_ctrls0.rdQLenPdf::14                    23                       # What read queue length does an incoming req see
system.mem_ctrls0.rdQLenPdf::15                    23                       # What read queue length does an incoming req see
system.mem_ctrls0.rdQLenPdf::16                    20                       # What read queue length does an incoming req see
system.mem_ctrls0.rdQLenPdf::17                    16                       # What read queue length does an incoming req see
system.mem_ctrls0.rdQLenPdf::18                    12                       # What read queue length does an incoming req see
system.mem_ctrls0.rdQLenPdf::19                     9                       # What read queue length does an incoming req see
system.mem_ctrls0.rdQLenPdf::20                    11                       # What read queue length does an incoming req see
system.mem_ctrls0.rdQLenPdf::21                    10                       # What read queue length does an incoming req see
system.mem_ctrls0.rdQLenPdf::22                    12                       # What read queue length does an incoming req see
system.mem_ctrls0.rdQLenPdf::23                    11                       # What read queue length does an incoming req see
system.mem_ctrls0.rdQLenPdf::24                     7                       # What read queue length does an incoming req see
system.mem_ctrls0.rdQLenPdf::25                     5                       # What read queue length does an incoming req see
system.mem_ctrls0.rdQLenPdf::26                     2                       # What read queue length does an incoming req see
system.mem_ctrls0.rdQLenPdf::27                     1                       # What read queue length does an incoming req see
system.mem_ctrls0.rdQLenPdf::28                     1                       # What read queue length does an incoming req see
system.mem_ctrls0.rdQLenPdf::29                     1                       # What read queue length does an incoming req see
system.mem_ctrls0.rdQLenPdf::30                     1                       # What read queue length does an incoming req see
system.mem_ctrls0.rdQLenPdf::31                     2                       # What read queue length does an incoming req see
system.mem_ctrls0.wrQLenPdf::0                  11529                       # What write queue length does an incoming req see
system.mem_ctrls0.wrQLenPdf::1                  12680                       # What write queue length does an incoming req see
system.mem_ctrls0.wrQLenPdf::2                  12649                       # What write queue length does an incoming req see
system.mem_ctrls0.wrQLenPdf::3                  12298                       # What write queue length does an incoming req see
system.mem_ctrls0.wrQLenPdf::4                  11958                       # What write queue length does an incoming req see
system.mem_ctrls0.wrQLenPdf::5                    413                       # What write queue length does an incoming req see
system.mem_ctrls0.wrQLenPdf::6                    174                       # What write queue length does an incoming req see
system.mem_ctrls0.wrQLenPdf::7                    260                       # What write queue length does an incoming req see
system.mem_ctrls0.bytesPerActivate::samples        52979                       # Bytes accessed per row activation
system.mem_ctrls0.bytesPerActivate::mean   168.602956                       # Bytes accessed per row activation
system.mem_ctrls0.bytesPerActivate::gmean   119.902023                       # Bytes accessed per row activation
system.mem_ctrls0.bytesPerActivate::stdev   174.811959                       # Bytes accessed per row activation
system.mem_ctrls0.bytesPerActivate::0-127        27186     51.31%     51.31% # Bytes accessed per row activation
system.mem_ctrls0.bytesPerActivate::128-255        13161     24.84%     76.16% # Bytes accessed per row activation
system.mem_ctrls0.bytesPerActivate::256-383         7693     14.52%     90.68% # Bytes accessed per row activation
system.mem_ctrls0.bytesPerActivate::384-511         1930      3.64%     94.32% # Bytes accessed per row activation
system.mem_ctrls0.bytesPerActivate::512-639         1121      2.12%     96.44% # Bytes accessed per row activation
system.mem_ctrls0.bytesPerActivate::640-767          584      1.10%     97.54% # Bytes accessed per row activation
system.mem_ctrls0.bytesPerActivate::768-895          411      0.78%     98.31% # Bytes accessed per row activation
system.mem_ctrls0.bytesPerActivate::896-1023          318      0.60%     98.91% # Bytes accessed per row activation
system.mem_ctrls0.bytesPerActivate::1024-1151          575      1.09%    100.00% # Bytes accessed per row activation
system.mem_ctrls0.bytesPerActivate::total        52979                       # Bytes accessed per row activation
system.mem_ctrls0.rdPerTurnAround::samples        11549                       # Reads before turning the bus around for writes
system.mem_ctrls0.rdPerTurnAround::mean      6.720928                       # Reads before turning the bus around for writes
system.mem_ctrls0.rdPerTurnAround::stdev    37.566636                       # Reads before turning the bus around for writes
system.mem_ctrls0.rdPerTurnAround::0-127        11543     99.95%     99.95% # Reads before turning the bus around for writes
system.mem_ctrls0.rdPerTurnAround::128-255            5      0.04%     99.99% # Reads before turning the bus around for writes
system.mem_ctrls0.rdPerTurnAround::3968-4095            1      0.01%    100.00% # Reads before turning the bus around for writes
system.mem_ctrls0.rdPerTurnAround::total        11549                       # Reads before turning the bus around for writes
system.mem_ctrls0.wrPerTurnAround::samples        11549                       # Writes before turning the bus around for reads
system.mem_ctrls0.wrPerTurnAround::mean      5.364880                       # Writes before turning the bus around for reads
system.mem_ctrls0.wrPerTurnAround::gmean     5.289669                       # Writes before turning the bus around for reads
system.mem_ctrls0.wrPerTurnAround::stdev     1.117546                       # Writes before turning the bus around for reads
system.mem_ctrls0.wrPerTurnAround::4-7          11055     95.72%     95.72% # Writes before turning the bus around for reads
system.mem_ctrls0.wrPerTurnAround::8-11           409      3.54%     99.26% # Writes before turning the bus around for reads
system.mem_ctrls0.wrPerTurnAround::12-15           60      0.52%     99.78% # Writes before turning the bus around for reads
system.mem_ctrls0.wrPerTurnAround::16-19           25      0.22%    100.00% # Writes before turning the bus around for reads
system.mem_ctrls0.wrPerTurnAround::total        11549                       # Writes before turning the bus around for reads
system.mem_ctrls0.totQLat                  1867078112                       # Total ticks spent queuing
system.mem_ctrls0.totMemAccLat             3322584362                       # Total ticks spent from burst creation until serviced by the DRAM
system.mem_ctrls0.totBusLat                 388135000                       # Total ticks spent in databus transfers
system.mem_ctrls0.avgQLat                    24051.92                       # Average queueing delay per DRAM burst
system.mem_ctrls0.avgBusLat                   5000.00                       # Average bus latency per DRAM burst
system.mem_ctrls0.avgMemAccLat               42801.92                       # Average memory access latency per DRAM burst
system.mem_ctrls0.avgRdBW                      130.44                       # Average DRAM read bandwidth in MiByte/s
system.mem_ctrls0.avgWrBW                      104.11                       # Average achieved write bandwidth in MiByte/s
system.mem_ctrls0.avgRdBWSys                   130.48                       # Average system read bandwidth in MiByte/s
system.mem_ctrls0.avgWrBWSys                   104.11                       # Average system write bandwidth in MiByte/s
system.mem_ctrls0.peakBW                     12800.00                       # Theoretical peak bandwidth in MiByte/s
system.mem_ctrls0.busUtil                        1.83                       # Data bus utilization in percentage
system.mem_ctrls0.busUtilRead                    1.02                       # Data bus utilization in percentage for reads
system.mem_ctrls0.busUtilWrite                   0.81                       # Data bus utilization in percentage for writes
system.mem_ctrls0.avgRdQLen                      1.10                       # Average read queue length when enqueuing
system.mem_ctrls0.avgWrQLen                      2.85                       # Average write queue length when enqueuing
system.mem_ctrls0.readRowHits                   53407                       # Number of row buffer hits during reads
system.mem_ctrls0.writeRowHits                  33192                       # Number of row buffer hits during writes
system.mem_ctrls0.readRowHitRate                68.80                       # Row buffer hit rate for reads
system.mem_ctrls0.writeRowHitRate               53.57                       # Row buffer hit rate for writes
system.mem_ctrls0.avgGap                    272812.08                       # Average gap between requests
system.mem_ctrls0.pageHitRate                   62.04                       # Row buffer hit rate, read and write combined
system.mem_ctrls0.memoryStateTime::IDLE    8544895750                       # Time in different power states
system.mem_ctrls0.memoryStateTime::REF     1271660000                       # Time in different power states
system.mem_ctrls0.memoryStateTime::PRE_PDN            0                       # Time in different power states
system.mem_ctrls0.memoryStateTime::ACT    28266266750                       # Time in different power states
system.mem_ctrls0.memoryStateTime::ACT_PDN            0                       # Time in different power states
system.mem_ctrls0.actEnergy::0              200513880                       # Energy for activate commands per rank (pJ)
system.mem_ctrls0.actEnergy::1              199969560                       # Energy for activate commands per rank (pJ)
system.mem_ctrls0.preEnergy::0              109407375                       # Energy for precharge commands per rank (pJ)
system.mem_ctrls0.preEnergy::1              109110375                       # Energy for precharge commands per rank (pJ)
system.mem_ctrls0.readEnergy::0             305104800                       # Energy for read commands per rank (pJ)
system.mem_ctrls0.readEnergy::1             300245400                       # Energy for read commands per rank (pJ)
system.mem_ctrls0.writeEnergy::0            199538640                       # Energy for write commands per rank (pJ)
system.mem_ctrls0.writeEnergy::1            201890880                       # Energy for write commands per rank (pJ)
system.mem_ctrls0.refreshEnergy::0         2487366960                       # Energy for refresh commands per rank (pJ)
system.mem_ctrls0.refreshEnergy::1         2487366960                       # Energy for refresh commands per rank (pJ)
system.mem_ctrls0.actBackEnergy::0        15312260835                       # Energy for active background per rank (pJ)
system.mem_ctrls0.actBackEnergy::1        14875159185                       # Energy for active background per rank (pJ)
system.mem_ctrls0.preBackEnergy::0         9417877500                       # Energy for precharge background per rank (pJ)
system.mem_ctrls0.preBackEnergy::1         9801300000                       # Energy for precharge background per rank (pJ)
system.mem_ctrls0.totalEnergy::0          28032069990                       # Total energy per rank (pJ)
system.mem_ctrls0.totalEnergy::1          27975042360                       # Total energy per rank (pJ)
system.mem_ctrls0.averagePower::0          736.081999                       # Core power per rank (mW)
system.mem_ctrls0.averagePower::1          734.584535                       # Core power per rank (mW)
system.mem_ctrls1.bytes_read::ruby.dir_cntrl1      4882048                       # Number of bytes read from this memory
system.mem_ctrls1.bytes_read::total           4882048                       # Number of bytes read from this memory
system.mem_ctrls1.bytes_written::ruby.dir_cntrl1      3886080                       # Number of bytes written to this memory
system.mem_ctrls1.bytes_written::total        3886080                       # Number of bytes written to this memory
system.mem_ctrls1.num_reads::ruby.dir_cntrl1        76282                       # Number of read requests responded to by this memory
system.mem_ctrls1.num_reads::total              76282                       # Number of read requests responded to by this memory
system.mem_ctrls1.num_writes::ruby.dir_cntrl1        60720                       # Number of write requests responded to by this memory
system.mem_ctrls1.num_writes::total             60720                       # Number of write requests responded to by this memory
system.mem_ctrls1.bw_read::ruby.dir_cntrl1    128177957                       # Total read bandwidth from this memory (bytes/s)
system.mem_ctrls1.bw_read::total            128177957                       # Total read bandwidth from this memory (bytes/s)
system.mem_ctrls1.bw_write::ruby.dir_cntrl1    102028861                       # Write bandwidth from this memory (bytes/s)
system.mem_ctrls1.bw_write::total           102028861                       # Write bandwidth from this memory (bytes/s)
system.mem_ctrls1.bw_total::ruby.dir_cntrl1    230206818                       # Total bandwidth to/from this memory (bytes/s)
system.mem_ctrls1.bw_total::total           230206818                       # Total bandwidth to/from this memory (bytes/s)
system.mem_ctrls1.readReqs                      76282                       # Number of read requests accepted
system.mem_ctrls1.writeReqs                     60720                       # Number of write requests accepted
system.mem_ctrls1.readBursts                    76282                       # Number of DRAM read bursts, including those serviced by the write queue
system.mem_ctrls1.writeBursts                   60720                       # Number of DRAM write bursts, including those merged in the write queue
system.mem_ctrls1.bytesReadDRAM               4881088                       # Total number of bytes read from DRAM
system.mem_ctrls1.bytesReadWrQ                    960                       # Total number of bytes read from write queue
system.mem_ctrls1.bytesWritten                3886080                       # Total number of bytes written to DRAM
system.mem_ctrls1.bytesReadSys                4882048                       # Total read bytes from the system interface side
system.mem_ctrls1.bytesWrittenSys             3886080                       # Total written bytes from the system interface side
system.mem_ctrls1.servicedByWrQ                    15                       # Number of DRAM read bursts serviced by the write queue
system.mem_ctrls1.mergedWrBursts                    0                       # Number of DRAM write bursts merged with an existing one
system.mem_ctrls1.neitherReadNorWriteReqs            0                       # Number of requests that are neither read nor write
system.mem_ctrls1.perBankRdBursts::0             4324                       # Per bank write bursts
system.mem_ctrls1.perBankRdBursts::1             4748                       # Per bank write bursts
system.mem_ctrls1.perBankRdBursts::2             4465                       # Per bank write bursts
system.mem_ctrls1.perBankRdBursts::3             4894                       # Per bank write bursts
system.mem_ctrls1.perBankRdBursts::4             4783                       # Per bank write bursts
system.mem_ctrls1.perBankRdBursts::5             5299                       # Per bank write bursts
system.mem_ctrls1.perBankRdBursts::6             4881                       # Per bank write bursts
system.mem_ctrls1.perBankRdBursts::7             5160                       # Per bank write bursts
system.mem_ctrls1.perBankRdBursts::8             4938                       # Per bank write bursts
system.mem_ctrls1.perBankRdBursts::9             5093                       # Per bank write bursts
system.mem_ctrls1.perBankRdBursts::10            4517                       # Per bank write bursts
system.mem_ctrls1.perBankRdBursts::11            4727                       # Per bank write bursts
system.mem_ctrls1.perBankRdBursts::12            4493                       # Per bank write bursts
system.mem_ctrls1.perBankRdBursts::13            4570                       # Per bank write bursts
system.mem_ctrls1.perBankRdBursts::14            4636                       # Per bank write bursts
system.mem_ctrls1.perBankRdBursts::15            4739                       # Per bank write bursts
system.mem_ctrls1.perBankWrBursts::0             3556                       # Per bank write bursts
system.mem_ctrls1.perBankWrBursts::1             3507                       # Per bank write bursts
system.mem_ctrls1.perBankWrBursts::2             3578                       # Per bank write bursts
system.mem_ctrls1.perBankWrBursts::3             3743                       # Per bank write bursts
system.mem_ctrls1.perBankWrBursts::4             3792                       # Per bank write bursts
system.mem_ctrls1.perBankWrBursts::5             4123                       # Per bank write bursts
system.mem_ctrls1.perBankWrBursts::6             3849                       # Per bank write bursts
system.mem_ctrls1.perBankWrBursts::7             4097                       # Per bank write bursts
system.mem_ctrls1.perBankWrBursts::8             3969                       # Per bank write bursts
system.mem_ctrls1.perBankWrBursts::9             4038                       # Per bank write bursts
system.mem_ctrls1.perBankWrBursts::10            3617                       # Per bank write bursts
system.mem_ctrls1.perBankWrBursts::11            3570                       # Per bank write bursts
system.mem_ctrls1.perBankWrBursts::12            3719                       # Per bank write bursts
system.mem_ctrls1.perBankWrBursts::13            3827                       # Per bank write bursts
system.mem_ctrls1.perBankWrBursts::14            3899                       # Per bank write bursts
system.mem_ctrls1.perBankWrBursts::15            3836                       # Per bank write bursts
system.mem_ctrls1.numRdRetry                        3                       # Number of times read queue was full causing retry
system.mem_ctrls1.numWrRetry                      147                       # Number of times write queue was full causing retry
system.mem_ctrls1.totGap                  38087329000                       # Total gap between requests
system.mem_ctrls1.readPktSize::0                    0                       # Read request sizes (log2)
system.mem_ctrls1.readPktSize::1                    0                       # Read request sizes (log2)
system.mem_ctrls1.readPktSize::2                    0                       # Read request sizes (log2)
system.mem_ctrls1.readPktSize::3                    0                       # Read request sizes (log2)
system.mem_ctrls1.readPktSize::4                    0                       # Read request sizes (log2)
system.mem_ctrls1.readPktSize::5                    0                       # Read request sizes (log2)
system.mem_ctrls1.readPktSize::6                76282                       # Read request sizes (log2)
system.mem_ctrls1.writePktSize::0                   0                       # Write request sizes (log2)
system.mem_ctrls1.writePktSize::1                   0                       # Write request sizes (log2)
system.mem_ctrls1.writePktSize::2                   0                       # Write request sizes (log2)
system.mem_ctrls1.writePktSize::3                   0                       # Write request sizes (log2)
system.mem_ctrls1.writePktSize::4                   0                       # Write request sizes (log2)
system.mem_ctrls1.writePktSize::5                   0                       # Write request sizes (log2)
system.mem_ctrls1.writePktSize::6               60720                       # Write request sizes (log2)
system.mem_ctrls1.rdQLenPdf::0                  59365                       # What read queue length does an incoming req see
system.mem_ctrls1.rdQLenPdf::1                  10037                       # What read queue length does an incoming req see
system.mem_ctrls1.rdQLenPdf::2                   3313                       # What read queue length does an incoming req see
system.mem_ctrls1.rdQLenPdf::3                   1385                       # What read queue length does an incoming req see
system.mem_ctrls1.rdQLenPdf::4                    773                       # What read queue length does an incoming req see
system.mem_ctrls1.rdQLenPdf::5                    473                       # What read queue length does an incoming req see
system.mem_ctrls1.rdQLenPdf::6                    270                       # What read queue length does an incoming req see
system.mem_ctrls1.rdQLenPdf::7                    160                       # What read queue length does an incoming req see
system.mem_ctrls1.rdQLenPdf::8                     94                       # What read queue length does an incoming req see
system.mem_ctrls1.rdQLenPdf::9                     74                       # What read queue length does an incoming req see
system.mem_ctrls1.rdQLenPdf::10                    52                       # What read queue length does an incoming req see
system.mem_ctrls1.rdQLenPdf::11                    46                       # What read queue length does an incoming req see
system.mem_ctrls1.rdQLenPdf::12                    38                       # What read queue length does an incoming req see
system.mem_ctrls1.rdQLenPdf::13                    31                       # What read queue length does an incoming req see
system.mem_ctrls1.rdQLenPdf::14                    24                       # What read queue length does an incoming req see
system.mem_ctrls1.rdQLenPdf::15                    22                       # What read queue length does an incoming req see
system.mem_ctrls1.rdQLenPdf::16                    15                       # What read queue length does an incoming req see
system.mem_ctrls1.rdQLenPdf::17                    14                       # What read queue length does an incoming req see
system.mem_ctrls1.rdQLenPdf::18                     8                       # What read queue length does an incoming req see
system.mem_ctrls1.rdQLenPdf::19                     9                       # What read queue length does an incoming req see
system.mem_ctrls1.rdQLenPdf::20                    11                       # What read queue length does an incoming req see
system.mem_ctrls1.rdQLenPdf::21                     9                       # What read queue length does an incoming req see
system.mem_ctrls1.rdQLenPdf::22                    10                       # What read queue length does an incoming req see
system.mem_ctrls1.rdQLenPdf::23                     9                       # What read queue length does an incoming req see
system.mem_ctrls1.rdQLenPdf::24                     6                       # What read queue length does an incoming req see
system.mem_ctrls1.rdQLenPdf::25                     7                       # What read queue length does an incoming req see
system.mem_ctrls1.rdQLenPdf::26                     4                       # What read queue length does an incoming req see
system.mem_ctrls1.rdQLenPdf::27                     1                       # What read queue length does an incoming req see
system.mem_ctrls1.rdQLenPdf::28                     1                       # What read queue length does an incoming req see
system.mem_ctrls1.rdQLenPdf::29                     1                       # What read queue length does an incoming req see
system.mem_ctrls1.rdQLenPdf::30                     1                       # What read queue length does an incoming req see
system.mem_ctrls1.rdQLenPdf::31                     4                       # What read queue length does an incoming req see
system.mem_ctrls1.wrQLenPdf::0                  11304                       # What write queue length does an incoming req see
system.mem_ctrls1.wrQLenPdf::1                  12306                       # What write queue length does an incoming req see
system.mem_ctrls1.wrQLenPdf::2                  12395                       # What write queue length does an incoming req see
system.mem_ctrls1.wrQLenPdf::3                  12155                       # What write queue length does an incoming req see
system.mem_ctrls1.wrQLenPdf::4                  11760                       # What write queue length does an incoming req see
system.mem_ctrls1.wrQLenPdf::5                    400                       # What write queue length does an incoming req see
system.mem_ctrls1.wrQLenPdf::6                    171                       # What write queue length does an incoming req see
system.mem_ctrls1.wrQLenPdf::7                    229                       # What write queue length does an incoming req see
system.mem_ctrls1.bytesPerActivate::samples        50899                       # Bytes accessed per row activation
system.mem_ctrls1.bytesPerActivate::mean   172.226252                       # Bytes accessed per row activation
system.mem_ctrls1.bytesPerActivate::gmean   121.769511                       # Bytes accessed per row activation
system.mem_ctrls1.bytesPerActivate::stdev   179.006096                       # Bytes accessed per row activation
system.mem_ctrls1.bytesPerActivate::0-127        25737     50.56%     50.56% # Bytes accessed per row activation
system.mem_ctrls1.bytesPerActivate::128-255        12667     24.89%     75.45% # Bytes accessed per row activation
system.mem_ctrls1.bytesPerActivate::256-383         7534     14.80%     90.25% # Bytes accessed per row activation
system.mem_ctrls1.bytesPerActivate::384-511         1890      3.71%     93.97% # Bytes accessed per row activation
system.mem_ctrls1.bytesPerActivate::512-639         1132      2.22%     96.19% # Bytes accessed per row activation
system.mem_ctrls1.bytesPerActivate::640-767          583      1.15%     97.34% # Bytes accessed per row activation
system.mem_ctrls1.bytesPerActivate::768-895          431      0.85%     98.18% # Bytes accessed per row activation
system.mem_ctrls1.bytesPerActivate::896-1023          314      0.62%     98.80% # Bytes accessed per row activation
system.mem_ctrls1.bytesPerActivate::1024-1151          611      1.20%    100.00% # Bytes accessed per row activation
system.mem_ctrls1.bytesPerActivate::total        50899                       # Bytes accessed per row activation
system.mem_ctrls1.rdPerTurnAround::samples        11324                       # Reads before turning the bus around for writes
system.mem_ctrls1.rdPerTurnAround::mean      6.734988                       # Reads before turning the bus around for writes
system.mem_ctrls1.rdPerTurnAround::stdev    29.906820                       # Reads before turning the bus around for writes
system.mem_ctrls1.rdPerTurnAround::0-127        11319     99.96%     99.96% # Reads before turning the bus around for writes
system.mem_ctrls1.rdPerTurnAround::128-255            3      0.03%     99.98% # Reads before turning the bus around for writes
system.mem_ctrls1.rdPerTurnAround::1152-1279            1      0.01%     99.99% # Reads before turning the bus around for writes
system.mem_ctrls1.rdPerTurnAround::2816-2943            1      0.01%    100.00% # Reads before turning the bus around for writes
system.mem_ctrls1.rdPerTurnAround::total        11324                       # Reads before turning the bus around for writes
system.mem_ctrls1.wrPerTurnAround::samples        11324                       # Writes before turning the bus around for reads
system.mem_ctrls1.wrPerTurnAround::mean      5.362063                       # Writes before turning the bus around for reads
system.mem_ctrls1.wrPerTurnAround::gmean     5.282905                       # Writes before turning the bus around for reads
system.mem_ctrls1.wrPerTurnAround::stdev     1.159136                       # Writes before turning the bus around for reads
system.mem_ctrls1.wrPerTurnAround::4-7          10844     95.76%     95.76% # Writes before turning the bus around for reads
system.mem_ctrls1.wrPerTurnAround::8-11           379      3.35%     99.11% # Writes before turning the bus around for reads
system.mem_ctrls1.wrPerTurnAround::12-15           77      0.68%     99.79% # Writes before turning the bus around for reads
system.mem_ctrls1.wrPerTurnAround::16-19           24      0.21%    100.00% # Writes before turning the bus around for reads
system.mem_ctrls1.wrPerTurnAround::total        11324                       # Writes before turning the bus around for reads
system.mem_ctrls1.totQLat                  1819753846                       # Total ticks spent queuing
system.mem_ctrls1.totMemAccLat             3249760096                       # Total ticks spent from burst creation until serviced by the DRAM
system.mem_ctrls1.totBusLat                 381335000                       # Total ticks spent in databus transfers
system.mem_ctrls1.avgQLat                    23860.30                       # Average queueing delay per DRAM burst
system.mem_ctrls1.avgBusLat                   5000.00                       # Average bus latency per DRAM burst
system.mem_ctrls1.avgMemAccLat               42610.30                       # Average memory access latency per DRAM burst
system.mem_ctrls1.avgRdBW                      128.15                       # Average DRAM read bandwidth in MiByte/s
system.mem_ctrls1.avgWrBW                      102.03                       # Average achieved write bandwidth in MiByte/s
system.mem_ctrls1.avgRdBWSys                   128.18                       # Average system read bandwidth in MiByte/s
system.mem_ctrls1.avgWrBWSys                   102.03                       # Average system write bandwidth in MiByte/s
system.mem_ctrls1.peakBW                     12800.00                       # Theoretical peak bandwidth in MiByte/s
system.mem_ctrls1.busUtil                        1.80                       # Data bus utilization in percentage
system.mem_ctrls1.busUtilRead                    1.00                       # Data bus utilization in percentage for reads
system.mem_ctrls1.busUtilWrite                   0.80                       # Data bus utilization in percentage for writes
system.mem_ctrls1.avgRdQLen                      1.07                       # Average read queue length when enqueuing
system.mem_ctrls1.avgWrQLen                      2.91                       # Average write queue length when enqueuing
system.mem_ctrls1.readRowHits                   52643                       # Number of row buffer hits during reads
system.mem_ctrls1.writeRowHits                  33434                       # Number of row buffer hits during writes
system.mem_ctrls1.readRowHitRate                69.02                       # Row buffer hit rate for reads
system.mem_ctrls1.writeRowHitRate               55.06                       # Row buffer hit rate for writes
system.mem_ctrls1.avgGap                    278005.64                       # Average gap between requests
system.mem_ctrls1.pageHitRate                   62.84                       # Row buffer hit rate, read and write combined
system.mem_ctrls1.memoryStateTime::IDLE    8896851250                       # Time in different power states
system.mem_ctrls1.memoryStateTime::REF     1271660000                       # Time in different power states
system.mem_ctrls1.memoryStateTime::PRE_PDN            0                       # Time in different power states
system.mem_ctrls1.memoryStateTime::ACT    27914486750                       # Time in different power states
system.mem_ctrls1.memoryStateTime::ACT_PDN            0                       # Time in different power states
system.mem_ctrls1.actEnergy::0              193649400                       # Energy for activate commands per rank (pJ)
system.mem_ctrls1.actEnergy::1              191079000                       # Energy for activate commands per rank (pJ)
system.mem_ctrls1.preEnergy::0              105661875                       # Energy for precharge commands per rank (pJ)
system.mem_ctrls1.preEnergy::1              104259375                       # Energy for precharge commands per rank (pJ)
system.mem_ctrls1.readEnergy::0             300635400                       # Energy for read commands per rank (pJ)
system.mem_ctrls1.readEnergy::1             294075600                       # Energy for read commands per rank (pJ)
system.mem_ctrls1.writeEnergy::0            195981120                       # Energy for write commands per rank (pJ)
system.mem_ctrls1.writeEnergy::1            197387280                       # Energy for write commands per rank (pJ)
system.mem_ctrls1.refreshEnergy::0         2487366960                       # Energy for refresh commands per rank (pJ)
system.mem_ctrls1.refreshEnergy::1         2487366960                       # Energy for refresh commands per rank (pJ)
system.mem_ctrls1.actBackEnergy::0        15191074845                       # Energy for active background per rank (pJ)
system.mem_ctrls1.actBackEnergy::1        14470535565                       # Energy for active background per rank (pJ)
system.mem_ctrls1.preBackEnergy::0         9524181000                       # Energy for precharge background per rank (pJ)
system.mem_ctrls1.preBackEnergy::1        10156233000                       # Energy for precharge background per rank (pJ)
system.mem_ctrls1.totalEnergy::0          27998550600                       # Total energy per rank (pJ)
system.mem_ctrls1.totalEnergy::1          27900936780                       # Total energy per rank (pJ)
system.mem_ctrls1.averagePower::0          735.201828                       # Core power per rank (mW)
system.mem_ctrls1.averagePower::1          732.638629                       # Core power per rank (mW)
system.mem_ctrls2.bytes_read::ruby.dir_cntrl2      4880896                       # Number of bytes read from this memory
system.mem_ctrls2.bytes_read::total           4880896                       # Number of bytes read from this memory
system.mem_ctrls2.bytes_written::ruby.dir_cntrl2      3885440                       # Number of bytes written to this memory
system.mem_ctrls2.bytes_written::total        3885440                       # Number of bytes written to this memory
system.mem_ctrls2.num_reads::ruby.dir_cntrl2        76264                       # Number of read requests responded to by this memory
system.mem_ctrls2.num_reads::total              76264                       # Number of read requests responded to by this memory
system.mem_ctrls2.num_writes::ruby.dir_cntrl2        60710                       # Number of write requests responded to by this memory
system.mem_ctrls2.num_writes::total             60710                       # Number of write requests responded to by this memory
system.mem_ctrls2.bw_read::ruby.dir_cntrl2    128147712                       # Total read bandwidth from this memory (bytes/s)
system.mem_ctrls2.bw_read::total            128147712                       # Total read bandwidth from this memory (bytes/s)
system.mem_ctrls2.bw_write::ruby.dir_cntrl2    102012058                       # Write bandwidth from this memory (bytes/s)
system.mem_ctrls2.bw_write::total           102012058                       # Write bandwidth from this memory (bytes/s)
system.mem_ctrls2.bw_total::ruby.dir_cntrl2    230159769                       # Total bandwidth to/from this memory (bytes/s)
system.mem_ctrls2.bw_total::total           230159769                       # Total bandwidth to/from this memory (bytes/s)
system.mem_ctrls2.readReqs                      76264                       # Number of read requests accepted
system.mem_ctrls2.writeReqs                     60710                       # Number of write requests accepted
system.mem_ctrls2.readBursts                    76264                       # Number of DRAM read bursts, including those serviced by the write queue
system.mem_ctrls2.writeBursts                   60710                       # Number of DRAM write bursts, including those merged in the write queue
system.mem_ctrls2.bytesReadDRAM               4879936                       # Total number of bytes read from DRAM
system.mem_ctrls2.bytesReadWrQ                    960                       # Total number of bytes read from write queue
system.mem_ctrls2.bytesWritten                3885376                       # Total number of bytes written to DRAM
system.mem_ctrls2.bytesReadSys                4880896                       # Total read bytes from the system interface side
system.mem_ctrls2.bytesWrittenSys             3885440                       # Total written bytes from the system interface side
system.mem_ctrls2.servicedByWrQ                    15                       # Number of DRAM read bursts serviced by the write queue
system.mem_ctrls2.mergedWrBursts                    0                       # Number of DRAM write bursts merged with an existing one
system.mem_ctrls2.neitherReadNorWriteReqs            0                       # Number of requests that are neither read nor write
system.mem_ctrls2.perBankRdBursts::0             4318                       # Per bank write bursts
system.mem_ctrls2.perBankRdBursts::1             4749                       # Per bank write bursts
system.mem_ctrls2.perBankRdBursts::2             4474                       # Per bank write bursts
system.mem_ctrls2.perBankRdBursts::3             4903                       # Per bank write bursts
system.mem_ctrls2.perBankRdBursts::4             4777                       # Per bank write bursts
system.mem_ctrls2.perBankRdBursts::5             5296                       # Per bank write bursts
system.mem_ctrls2.perBankRdBursts::6             4863                       # Per bank write bursts
system.mem_ctrls2.perBankRdBursts::7             5159                       # Per bank write bursts
system.mem_ctrls2.perBankRdBursts::8             4913                       # Per bank write bursts
system.mem_ctrls2.perBankRdBursts::9             5099                       # Per bank write bursts
system.mem_ctrls2.perBankRdBursts::10            4520                       # Per bank write bursts
system.mem_ctrls2.perBankRdBursts::11            4768                       # Per bank write bursts
system.mem_ctrls2.perBankRdBursts::12            4492                       # Per bank write bursts
system.mem_ctrls2.perBankRdBursts::13            4543                       # Per bank write bursts
system.mem_ctrls2.perBankRdBursts::14            4622                       # Per bank write bursts
system.mem_ctrls2.perBankRdBursts::15            4753                       # Per bank write bursts
system.mem_ctrls2.perBankWrBursts::0             3554                       # Per bank write bursts
system.mem_ctrls2.perBankWrBursts::1             3505                       # Per bank write bursts
system.mem_ctrls2.perBankWrBursts::2             3576                       # Per bank write bursts
system.mem_ctrls2.perBankWrBursts::3             3732                       # Per bank write bursts
system.mem_ctrls2.perBankWrBursts::4             3787                       # Per bank write bursts
system.mem_ctrls2.perBankWrBursts::5             4120                       # Per bank write bursts
system.mem_ctrls2.perBankWrBursts::6             3854                       # Per bank write bursts
system.mem_ctrls2.perBankWrBursts::7             4111                       # Per bank write bursts
system.mem_ctrls2.perBankWrBursts::8             3963                       # Per bank write bursts
system.mem_ctrls2.perBankWrBursts::9             4044                       # Per bank write bursts
system.mem_ctrls2.perBankWrBursts::10            3616                       # Per bank write bursts
system.mem_ctrls2.perBankWrBursts::11            3577                       # Per bank write bursts
system.mem_ctrls2.perBankWrBursts::12            3720                       # Per bank write bursts
system.mem_ctrls2.perBankWrBursts::13            3820                       # Per bank write bursts
system.mem_ctrls2.perBankWrBursts::14            3893                       # Per bank write bursts
system.mem_ctrls2.perBankWrBursts::15            3837                       # Per bank write bursts
system.mem_ctrls2.numRdRetry                        0                       # Number of times read queue was full causing retry
system.mem_ctrls2.numWrRetry                      132                       # Number of times write queue was full causing retry
system.mem_ctrls2.totGap                  38087817000                       # Total gap between requests
system.mem_ctrls2.readPktSize::0                    0                       # Read request sizes (log2)
system.mem_ctrls2.readPktSize::1                    0                       # Read request sizes (log2)
system.mem_ctrls2.readPktSize::2                    0                       # Read request sizes (log2)
system.mem_ctrls2.readPktSize::3                    0                       # Read request sizes (log2)
system.mem_ctrls2.readPktSize::4                    0                       # Read request sizes (log2)
system.mem_ctrls2.readPktSize::5                    0                       # Read request sizes (log2)
system.mem_ctrls2.readPktSize::6                76264                       # Read request sizes (log2)
system.mem_ctrls2.writePktSize::0                   0                       # Write request sizes (log2)
system.mem_ctrls2.writePktSize::1                   0                       # Write request sizes (log2)
system.mem_ctrls2.writePktSize::2                   0                       # Write request sizes (log2)
system.mem_ctrls2.writePktSize::3                   0                       # Write request sizes (log2)
system.mem_ctrls2.writePktSize::4                   0                       # Write request sizes (log2)
system.mem_ctrls2.writePktSize::5                   0                       # Write request sizes (log2)
system.mem_ctrls2.writePktSize::6               60710                       # Write request sizes (log2)
system.mem_ctrls2.rdQLenPdf::0                  59553                       # What read queue length does an incoming req see
system.mem_ctrls2.rdQLenPdf::1                  10014                       # What read queue length does an incoming req see
system.mem_ctrls2.rdQLenPdf::2                   3259                       # What read queue length does an incoming req see
system.mem_ctrls2.rdQLenPdf::3                   1368                       # What read queue length does an incoming req see
system.mem_ctrls2.rdQLenPdf::4                    713                       # What read queue length does an incoming req see
system.mem_ctrls2.rdQLenPdf::5                    442                       # What read queue length does an incoming req see
system.mem_ctrls2.rdQLenPdf::6                    260                       # What read queue length does an incoming req see
system.mem_ctrls2.rdQLenPdf::7                    159                       # What read queue length does an incoming req see
system.mem_ctrls2.rdQLenPdf::8                    102                       # What read queue length does an incoming req see
system.mem_ctrls2.rdQLenPdf::9                     71                       # What read queue length does an incoming req see
system.mem_ctrls2.rdQLenPdf::10                    58                       # What read queue length does an incoming req see
system.mem_ctrls2.rdQLenPdf::11                    47                       # What read queue length does an incoming req see
system.mem_ctrls2.rdQLenPdf::12                    48                       # What read queue length does an incoming req see
system.mem_ctrls2.rdQLenPdf::13                    37                       # What read queue length does an incoming req see
system.mem_ctrls2.rdQLenPdf::14                    30                       # What read queue length does an incoming req see
system.mem_ctrls2.rdQLenPdf::15                    29                       # What read queue length does an incoming req see
system.mem_ctrls2.rdQLenPdf::16                    17                       # What read queue length does an incoming req see
system.mem_ctrls2.rdQLenPdf::17                    10                       # What read queue length does an incoming req see
system.mem_ctrls2.rdQLenPdf::18                     8                       # What read queue length does an incoming req see
system.mem_ctrls2.rdQLenPdf::19                     6                       # What read queue length does an incoming req see
system.mem_ctrls2.rdQLenPdf::20                     4                       # What read queue length does an incoming req see
system.mem_ctrls2.rdQLenPdf::21                     5                       # What read queue length does an incoming req see
system.mem_ctrls2.rdQLenPdf::22                     5                       # What read queue length does an incoming req see
system.mem_ctrls2.rdQLenPdf::23                     2                       # What read queue length does an incoming req see
system.mem_ctrls2.rdQLenPdf::24                     2                       # What read queue length does an incoming req see
system.mem_ctrls2.rdQLenPdf::25                     0                       # What read queue length does an incoming req see
system.mem_ctrls2.rdQLenPdf::26                     0                       # What read queue length does an incoming req see
system.mem_ctrls2.rdQLenPdf::27                     0                       # What read queue length does an incoming req see
system.mem_ctrls2.rdQLenPdf::28                     0                       # What read queue length does an incoming req see
system.mem_ctrls2.rdQLenPdf::29                     0                       # What read queue length does an incoming req see
system.mem_ctrls2.rdQLenPdf::30                     0                       # What read queue length does an incoming req see
system.mem_ctrls2.rdQLenPdf::31                     0                       # What read queue length does an incoming req see
system.mem_ctrls2.wrQLenPdf::0                  11323                       # What write queue length does an incoming req see
system.mem_ctrls2.wrQLenPdf::1                  12342                       # What write queue length does an incoming req see
system.mem_ctrls2.wrQLenPdf::2                  12377                       # What write queue length does an incoming req see
system.mem_ctrls2.wrQLenPdf::3                  12150                       # What write queue length does an incoming req see
system.mem_ctrls2.wrQLenPdf::4                  11741                       # What write queue length does an incoming req see
system.mem_ctrls2.wrQLenPdf::5                    391                       # What write queue length does an incoming req see
system.mem_ctrls2.wrQLenPdf::6                    166                       # What write queue length does an incoming req see
system.mem_ctrls2.wrQLenPdf::7                    220                       # What write queue length does an incoming req see
system.mem_ctrls2.bytesPerActivate::samples        51023                       # Bytes accessed per row activation
system.mem_ctrls2.bytesPerActivate::mean   171.765047                       # Bytes accessed per row activation
system.mem_ctrls2.bytesPerActivate::gmean   121.556534                       # Bytes accessed per row activation
system.mem_ctrls2.bytesPerActivate::stdev   177.798381                       # Bytes accessed per row activation
system.mem_ctrls2.bytesPerActivate::0-127        25900     50.76%     50.76% # Bytes accessed per row activation
system.mem_ctrls2.bytesPerActivate::128-255        12605     24.70%     75.47% # Bytes accessed per row activation
system.mem_ctrls2.bytesPerActivate::256-383         7541     14.78%     90.25% # Bytes accessed per row activation
system.mem_ctrls2.bytesPerActivate::384-511         1914      3.75%     94.00% # Bytes accessed per row activation
system.mem_ctrls2.bytesPerActivate::512-639         1130      2.21%     96.21% # Bytes accessed per row activation
system.mem_ctrls2.bytesPerActivate::640-767          616      1.21%     97.42% # Bytes accessed per row activation
system.mem_ctrls2.bytesPerActivate::768-895          440      0.86%     98.28% # Bytes accessed per row activation
system.mem_ctrls2.bytesPerActivate::896-1023          300      0.59%     98.87% # Bytes accessed per row activation
system.mem_ctrls2.bytesPerActivate::1024-1151          577      1.13%    100.00% # Bytes accessed per row activation
system.mem_ctrls2.bytesPerActivate::total        51023                       # Bytes accessed per row activation
system.mem_ctrls2.rdPerTurnAround::samples        11338                       # Reads before turning the bus around for writes
system.mem_ctrls2.rdPerTurnAround::mean      6.724731                       # Reads before turning the bus around for writes
system.mem_ctrls2.rdPerTurnAround::stdev    29.954509                       # Reads before turning the bus around for writes
system.mem_ctrls2.rdPerTurnAround::0-127        11333     99.96%     99.96% # Reads before turning the bus around for writes
system.mem_ctrls2.rdPerTurnAround::128-255            3      0.03%     99.98% # Reads before turning the bus around for writes
system.mem_ctrls2.rdPerTurnAround::1152-1279            1      0.01%     99.99% # Reads before turning the bus around for writes
system.mem_ctrls2.rdPerTurnAround::2816-2943            1      0.01%    100.00% # Reads before turning the bus around for writes
system.mem_ctrls2.rdPerTurnAround::total        11338                       # Reads before turning the bus around for writes
system.mem_ctrls2.wrPerTurnAround::samples        11338                       # Writes before turning the bus around for reads
system.mem_ctrls2.wrPerTurnAround::mean      5.354472                       # Writes before turning the bus around for reads
system.mem_ctrls2.wrPerTurnAround::gmean     5.278835                       # Writes before turning the bus around for reads
system.mem_ctrls2.wrPerTurnAround::stdev     1.124764                       # Writes before turning the bus around for reads
system.mem_ctrls2.wrPerTurnAround::4-7          10868     95.85%     95.85% # Writes before turning the bus around for reads
system.mem_ctrls2.wrPerTurnAround::8-11           378      3.33%     99.19% # Writes before turning the bus around for reads
system.mem_ctrls2.wrPerTurnAround::12-15           73      0.64%     99.83% # Writes before turning the bus around for reads
system.mem_ctrls2.wrPerTurnAround::16-19           19      0.17%    100.00% # Writes before turning the bus around for reads
system.mem_ctrls2.wrPerTurnAround::total        11338                       # Writes before turning the bus around for reads
system.mem_ctrls2.totQLat                  1797587127                       # Total ticks spent queuing
system.mem_ctrls2.totMemAccLat             3227255877                       # Total ticks spent from burst creation until serviced by the DRAM
system.mem_ctrls2.totBusLat                 381245000                       # Total ticks spent in databus transfers
system.mem_ctrls2.avgQLat                    23575.22                       # Average queueing delay per DRAM burst
system.mem_ctrls2.avgBusLat                   5000.00                       # Average bus latency per DRAM burst
system.mem_ctrls2.avgMemAccLat               42325.22                       # Average memory access latency per DRAM burst
system.mem_ctrls2.avgRdBW                      128.12                       # Average DRAM read bandwidth in MiByte/s
system.mem_ctrls2.avgWrBW                      102.01                       # Average achieved write bandwidth in MiByte/s
system.mem_ctrls2.avgRdBWSys                   128.15                       # Average system read bandwidth in MiByte/s
system.mem_ctrls2.avgWrBWSys                   102.01                       # Average system write bandwidth in MiByte/s
system.mem_ctrls2.peakBW                     12800.00                       # Theoretical peak bandwidth in MiByte/s
system.mem_ctrls2.busUtil                        1.80                       # Data bus utilization in percentage
system.mem_ctrls2.busUtilRead                    1.00                       # Data bus utilization in percentage for reads
system.mem_ctrls2.busUtilWrite                   0.80                       # Data bus utilization in percentage for writes
system.mem_ctrls2.avgRdQLen                      1.07                       # Average read queue length when enqueuing
system.mem_ctrls2.avgWrQLen                      2.93                       # Average write queue length when enqueuing
system.mem_ctrls2.readRowHits                   52576                       # Number of row buffer hits during reads
system.mem_ctrls2.writeRowHits                  33350                       # Number of row buffer hits during writes
system.mem_ctrls2.readRowHitRate                68.95                       # Row buffer hit rate for reads
system.mem_ctrls2.writeRowHitRate               54.93                       # Row buffer hit rate for writes
system.mem_ctrls2.avgGap                    278066.03                       # Average gap between requests
system.mem_ctrls2.pageHitRate                   62.74                       # Row buffer hit rate, read and write combined
system.mem_ctrls2.memoryStateTime::IDLE    8887394000                       # Time in different power states
system.mem_ctrls2.memoryStateTime::REF     1271660000                       # Time in different power states
system.mem_ctrls2.memoryStateTime::PRE_PDN            0                       # Time in different power states
system.mem_ctrls2.memoryStateTime::ACT    27924118500                       # Time in different power states
system.mem_ctrls2.memoryStateTime::ACT_PDN            0                       # Time in different power states
system.mem_ctrls2.actEnergy::0              193883760                       # Energy for activate commands per rank (pJ)
system.mem_ctrls2.actEnergy::1              191812320                       # Energy for activate commands per rank (pJ)
system.mem_ctrls2.preEnergy::0              105789750                       # Energy for precharge commands per rank (pJ)
system.mem_ctrls2.preEnergy::1              104659500                       # Energy for precharge commands per rank (pJ)
system.mem_ctrls2.readEnergy::0             300526200                       # Energy for read commands per rank (pJ)
system.mem_ctrls2.readEnergy::1             294083400                       # Energy for read commands per rank (pJ)
system.mem_ctrls2.writeEnergy::0            195948720                       # Energy for write commands per rank (pJ)
system.mem_ctrls2.writeEnergy::1            197380800                       # Energy for write commands per rank (pJ)
system.mem_ctrls2.refreshEnergy::0         2487366960                       # Energy for refresh commands per rank (pJ)
system.mem_ctrls2.refreshEnergy::1         2487366960                       # Energy for refresh commands per rank (pJ)
system.mem_ctrls2.actBackEnergy::0        15079814550                       # Energy for active background per rank (pJ)
system.mem_ctrls2.actBackEnergy::1        14595197130                       # Energy for active background per rank (pJ)
system.mem_ctrls2.preBackEnergy::0         9621777750                       # Energy for precharge background per rank (pJ)
system.mem_ctrls2.preBackEnergy::1        10046880750                       # Energy for precharge background per rank (pJ)
system.mem_ctrls2.totalEnergy::0          27985107690                       # Total energy per rank (pJ)
system.mem_ctrls2.totalEnergy::1          27917380860                       # Total energy per rank (pJ)
system.mem_ctrls2.averagePower::0          734.848836                       # Core power per rank (mW)
system.mem_ctrls2.averagePower::1          733.070427                       # Core power per rank (mW)
system.mem_ctrls3.bytes_read::ruby.dir_cntrl3      4858560                       # Number of bytes read from this memory
system.mem_ctrls3.bytes_read::total           4858560                       # Number of bytes read from this memory
system.mem_ctrls3.bytes_written::ruby.dir_cntrl3      3879744                       # Number of bytes written to this memory
system.mem_ctrls3.bytes_written::total        3879744                       # Number of bytes written to this memory
system.mem_ctrls3.num_reads::ruby.dir_cntrl3        75915                       # Number of read requests responded to by this memory
system.mem_ctrls3.num_reads::total              75915                       # Number of read requests responded to by this memory
system.mem_ctrls3.num_writes::ruby.dir_cntrl3        60621                       # Number of write requests responded to by this memory
system.mem_ctrls3.num_writes::total             60621                       # Number of write requests responded to by this memory
system.mem_ctrls3.bw_read::ruby.dir_cntrl3    127561281                       # Total read bandwidth from this memory (bytes/s)
system.mem_ctrls3.bw_read::total            127561281                       # Total read bandwidth from this memory (bytes/s)
system.mem_ctrls3.bw_write::ruby.dir_cntrl3    101862510                       # Write bandwidth from this memory (bytes/s)
system.mem_ctrls3.bw_write::total           101862510                       # Write bandwidth from this memory (bytes/s)
system.mem_ctrls3.bw_total::ruby.dir_cntrl3    229423790                       # Total bandwidth to/from this memory (bytes/s)
system.mem_ctrls3.bw_total::total           229423790                       # Total bandwidth to/from this memory (bytes/s)
system.mem_ctrls3.readReqs                      75916                       # Number of read requests accepted
system.mem_ctrls3.writeReqs                     60621                       # Number of write requests accepted
system.mem_ctrls3.readBursts                    75916                       # Number of DRAM read bursts, including those serviced by the write queue
system.mem_ctrls3.writeBursts                   60621                       # Number of DRAM write bursts, including those merged in the write queue
system.mem_ctrls3.bytesReadDRAM               4858048                       # Total number of bytes read from DRAM
system.mem_ctrls3.bytesReadWrQ                    576                       # Total number of bytes read from write queue
system.mem_ctrls3.bytesWritten                3879552                       # Total number of bytes written to DRAM
system.mem_ctrls3.bytesReadSys                4858624                       # Total read bytes from the system interface side
system.mem_ctrls3.bytesWrittenSys             3879744                       # Total written bytes from the system interface side
system.mem_ctrls3.servicedByWrQ                     9                       # Number of DRAM read bursts serviced by the write queue
system.mem_ctrls3.mergedWrBursts                    0                       # Number of DRAM write bursts merged with an existing one
system.mem_ctrls3.neitherReadNorWriteReqs            0                       # Number of requests that are neither read nor write
system.mem_ctrls3.perBankRdBursts::0             4296                       # Per bank write bursts
system.mem_ctrls3.perBankRdBursts::1             4715                       # Per bank write bursts
system.mem_ctrls3.perBankRdBursts::2             4420                       # Per bank write bursts
system.mem_ctrls3.perBankRdBursts::3             4861                       # Per bank write bursts
system.mem_ctrls3.perBankRdBursts::4             4738                       # Per bank write bursts
system.mem_ctrls3.perBankRdBursts::5             5240                       # Per bank write bursts
system.mem_ctrls3.perBankRdBursts::6             4869                       # Per bank write bursts
system.mem_ctrls3.perBankRdBursts::7             5148                       # Per bank write bursts
system.mem_ctrls3.perBankRdBursts::8             4921                       # Per bank write bursts
system.mem_ctrls3.perBankRdBursts::9             5076                       # Per bank write bursts
system.mem_ctrls3.perBankRdBursts::10            4520                       # Per bank write bursts
system.mem_ctrls3.perBankRdBursts::11            4731                       # Per bank write bursts
system.mem_ctrls3.perBankRdBursts::12            4482                       # Per bank write bursts
system.mem_ctrls3.perBankRdBursts::13            4517                       # Per bank write bursts
system.mem_ctrls3.perBankRdBursts::14            4644                       # Per bank write bursts
system.mem_ctrls3.perBankRdBursts::15            4729                       # Per bank write bursts
system.mem_ctrls3.perBankWrBursts::0             3553                       # Per bank write bursts
system.mem_ctrls3.perBankWrBursts::1             3502                       # Per bank write bursts
system.mem_ctrls3.perBankWrBursts::2             3567                       # Per bank write bursts
system.mem_ctrls3.perBankWrBursts::3             3718                       # Per bank write bursts
system.mem_ctrls3.perBankWrBursts::4             3786                       # Per bank write bursts
system.mem_ctrls3.perBankWrBursts::5             4100                       # Per bank write bursts
system.mem_ctrls3.perBankWrBursts::6             3845                       # Per bank write bursts
system.mem_ctrls3.perBankWrBursts::7             4097                       # Per bank write bursts
system.mem_ctrls3.perBankWrBursts::8             3970                       # Per bank write bursts
system.mem_ctrls3.perBankWrBursts::9             4036                       # Per bank write bursts
system.mem_ctrls3.perBankWrBursts::10            3605                       # Per bank write bursts
system.mem_ctrls3.perBankWrBursts::11            3581                       # Per bank write bursts
system.mem_ctrls3.perBankWrBursts::12            3717                       # Per bank write bursts
system.mem_ctrls3.perBankWrBursts::13            3823                       # Per bank write bursts
system.mem_ctrls3.perBankWrBursts::14            3893                       # Per bank write bursts
system.mem_ctrls3.perBankWrBursts::15            3825                       # Per bank write bursts
system.mem_ctrls3.numRdRetry                        6                       # Number of times read queue was full causing retry
system.mem_ctrls3.numWrRetry                      152                       # Number of times write queue was full causing retry
system.mem_ctrls3.totGap                  38087304500                       # Total gap between requests
system.mem_ctrls3.readPktSize::0                    0                       # Read request sizes (log2)
system.mem_ctrls3.readPktSize::1                    0                       # Read request sizes (log2)
system.mem_ctrls3.readPktSize::2                    0                       # Read request sizes (log2)
system.mem_ctrls3.readPktSize::3                    0                       # Read request sizes (log2)
system.mem_ctrls3.readPktSize::4                    0                       # Read request sizes (log2)
system.mem_ctrls3.readPktSize::5                    0                       # Read request sizes (log2)
system.mem_ctrls3.readPktSize::6                75916                       # Read request sizes (log2)
system.mem_ctrls3.writePktSize::0                   0                       # Write request sizes (log2)
system.mem_ctrls3.writePktSize::1                   0                       # Write request sizes (log2)
system.mem_ctrls3.writePktSize::2                   0                       # Write request sizes (log2)
system.mem_ctrls3.writePktSize::3                   0                       # Write request sizes (log2)
system.mem_ctrls3.writePktSize::4                   0                       # Write request sizes (log2)
system.mem_ctrls3.writePktSize::5                   0                       # Write request sizes (log2)
system.mem_ctrls3.writePktSize::6               60621                       # Write request sizes (log2)
system.mem_ctrls3.rdQLenPdf::0                  58987                       # What read queue length does an incoming req see
system.mem_ctrls3.rdQLenPdf::1                  10176                       # What read queue length does an incoming req see
system.mem_ctrls3.rdQLenPdf::2                   3280                       # What read queue length does an incoming req see
system.mem_ctrls3.rdQLenPdf::3                   1360                       # What read queue length does an incoming req see
system.mem_ctrls3.rdQLenPdf::4                    713                       # What read queue length does an incoming req see
system.mem_ctrls3.rdQLenPdf::5                    435                       # What read queue length does an incoming req see
system.mem_ctrls3.rdQLenPdf::6                    261                       # What read queue length does an incoming req see
system.mem_ctrls3.rdQLenPdf::7                    164                       # What read queue length does an incoming req see
system.mem_ctrls3.rdQLenPdf::8                    107                       # What read queue length does an incoming req see
system.mem_ctrls3.rdQLenPdf::9                     66                       # What read queue length does an incoming req see
system.mem_ctrls3.rdQLenPdf::10                    51                       # What read queue length does an incoming req see
system.mem_ctrls3.rdQLenPdf::11                    45                       # What read queue length does an incoming req see
system.mem_ctrls3.rdQLenPdf::12                    44                       # What read queue length does an incoming req see
system.mem_ctrls3.rdQLenPdf::13                    29                       # What read queue length does an incoming req see
system.mem_ctrls3.rdQLenPdf::14                    25                       # What read queue length does an incoming req see
system.mem_ctrls3.rdQLenPdf::15                    24                       # What read queue length does an incoming req see
system.mem_ctrls3.rdQLenPdf::16                    23                       # What read queue length does an incoming req see
system.mem_ctrls3.rdQLenPdf::17                    18                       # What read queue length does an incoming req see
system.mem_ctrls3.rdQLenPdf::18                    12                       # What read queue length does an incoming req see
system.mem_ctrls3.rdQLenPdf::19                    12                       # What read queue length does an incoming req see
system.mem_ctrls3.rdQLenPdf::20                    15                       # What read queue length does an incoming req see
system.mem_ctrls3.rdQLenPdf::21                     9                       # What read queue length does an incoming req see
system.mem_ctrls3.rdQLenPdf::22                    10                       # What read queue length does an incoming req see
system.mem_ctrls3.rdQLenPdf::23                    10                       # What read queue length does an incoming req see
system.mem_ctrls3.rdQLenPdf::24                    10                       # What read queue length does an incoming req see
[...]
system.ruby.L2Cache_Controller.MT_IIB.WB_Data::total       208055                      
system.ruby.L2Cache_Controller.MT_IIB.WB_Data_clean |         657      3.21%      3.21% |         642      3.14%      6.35% |         637      3.11%      9.46% |         648      3.17%     12.63% |         648      3.17%     15.80% |         655      3.20%     19.00% |         642      3.14%     22.13% |         627      3.06%     25.20% |         655      3.20%     28.40% |         617      3.02%     31.42% |         637      3.11%     34.53% |         627      3.06%     37.59% |         639      3.12%     40.72% |         631      3.08%     43.80% |         646      3.16%     46.96% |         640      3.13%     50.09% |         638      3.12%     53.20% |         642      3.14%     56.34% |         623      3.04%     59.39% |         617      3.02%     62.40% |         622      3.04%     65.44% |         624      3.05%     68.49% |         655      3.20%     71.69% |         643      3.14%     74.84% |         633      3.09%     77.93% |         637      3.11%     81.04% |         629      3.07%     84.12% |         636      3.11%     87.22% |         654      3.20%     90.42% |         647      3.16%     93.58% |         654      3.20%     96.78% |         659      3.22%    100.00%
system.ruby.L2Cache_Controller.MT_IIB.WB_Data_clean::total        20461                      
system.ruby.L2Cache_Controller.MT_IIB.Unblock |          54      0.97%      0.97% |          80      1.44%      2.41% |         136      2.45%      4.86% |         178      3.20%      8.07% |          93      1.67%      9.74% |         129      2.32%     12.06% |         211      3.80%     15.86% |         267      4.81%     20.67% |         264      4.75%     25.42% |         240      4.32%     29.74% |         193      3.47%     33.22% |         170      3.06%     36.28% |         139      2.50%     38.78% |         205      3.69%     42.47% |         140      2.52%     44.99% |          82      1.48%     46.47% |         167      3.01%     49.48% |         227      4.09%     53.56% |         190      3.42%     56.99% |         192      3.46%     60.44% |         266      4.79%     65.23% |         188      3.38%     68.62% |         152      2.74%     71.35% |         143      2.57%     73.93% |         209      3.76%     77.69% |         136      2.45%     80.14% |         185      3.33%     83.47% |         196      3.53%     87.00% |         129      2.32%     89.32% |         218      3.93%     93.25% |         120      2.16%     95.41% |         255      4.59%    100.00%
system.ruby.L2Cache_Controller.MT_IIB.Unblock::total         5554                      
system.ruby.L2Cache_Controller.MT_IB.L1_GETS |           0      0.00%      0.00% |           0      0.00%      0.00% |           0      0.00%      0.00% |           0      0.00%      0.00% |           0      0.00%      0.00% |           0      0.00%      0.00% |           0      0.00%      0.00% |           0      0.00%      0.00% |           0      0.00%      0.00% |           0      0.00%      0.00% |           0      0.00%      0.00% |           0      0.00%      0.00% |           2     66.67%     66.67% |           1     33.33%    100.00% |           0      0.00%    100.00% |           0      0.00%    100.00% |           0      0.00%    100.00% |           0      0.00%    100.00% |           0      0.00%    100.00% |           0      0.00%    100.00% |           0      0.00%    100.00% |           0      0.00%    100.00% |           0      0.00%    100.00% |           0      0.00%    100.00% |           0      0.00%    100.00% |           0      0.00%    100.00% |           0      0.00%    100.00% |           0      0.00%    100.00% |           0      0.00%    100.00% |           0      0.00%    100.00% |           0      0.00%    100.00% |           0      0.00%    100.00%
system.ruby.L2Cache_Controller.MT_IB.L1_GETS::total            3                      
system.ruby.L2Cache_Controller.MT_IB.L1_GETX |           0      0.00%      0.00% |           0      0.00%      0.00% |           0      0.00%      0.00% |           0      0.00%      0.00% |           0      0.00%      0.00% |           0      0.00%      0.00% |           0      0.00%      0.00% |           0      0.00%      0.00% |           0      0.00%      0.00% |           0      0.00%      0.00% |           0      0.00%      0.00% |           0      0.00%      0.00% |           0      0.00%      0.00% |           0      0.00%      0.00% |           0      0.00%      0.00% |           0      0.00%      0.00% |           0      0.00%      0.00% |           1    100.00%    100.00% |           0      0.00%    100.00% |           0      0.00%    100.00% |           0      0.00%    100.00% |           0      0.00%    100.00% |           0      0.00%    100.00% |           0      0.00%    100.00% |           0      0.00%    100.00% |           0      0.00%    100.00% |           0      0.00%    100.00% |           0      0.00%    100.00% |           0      0.00%    100.00% |           0      0.00%    100.00% |           0      0.00%    100.00% |           0      0.00%    100.00%
system.ruby.L2Cache_Controller.MT_IB.L1_GETX::total            1                      
system.ruby.L2Cache_Controller.MT_IB.L1_UPGRADE |           0      0.00%      0.00% |           0      0.00%      0.00% |           0      0.00%      0.00% |           0      0.00%      0.00% |           0      0.00%      0.00% |           0      0.00%      0.00% |           0      0.00%      0.00% |           1     11.11%     11.11% |           0      0.00%     11.11% |           0      0.00%     11.11% |           0      0.00%     11.11% |           0      0.00%     11.11% |           0      0.00%     11.11% |           0      0.00%     11.11% |           0      0.00%     11.11% |           0      0.00%     11.11% |           1     11.11%     22.22% |           0      0.00%     22.22% |           0      0.00%     22.22% |           2     22.22%     44.44% |           0      0.00%     44.44% |           0      0.00%     44.44% |           1     11.11%     55.56% |           1     11.11%     66.67% |           2     22.22%     88.89% |           1     11.11%    100.00% |           0      0.00%    100.00% |           0      0.00%    100.00% |           0      0.00%    100.00% |           0      0.00%    100.00% |           0      0.00%    100.00% |           0      0.00%    100.00%
system.ruby.L2Cache_Controller.MT_IB.L1_UPGRADE::total            9                      
system.ruby.L2Cache_Controller.MT_IB.WB_Data |          53      1.02%      1.02% |          77      1.49%      2.51% |         127      2.45%      4.96% |         168      3.25%      8.21% |          84      1.62%      9.83% |         123      2.38%     12.21% |         203      3.92%     16.13% |         247      4.77%     20.90% |         249      4.81%     25.71% |         217      4.19%     29.90% |         181      3.50%     33.40% |         154      2.97%     36.37% |         134      2.59%     38.96% |         188      3.63%     42.59% |         128      2.47%     45.06% |          76      1.47%     46.53% |         153      2.96%     49.49% |         211      4.08%     53.56% |         176      3.40%     56.96% |         175      3.38%     60.34% |         244      4.71%     65.06% |         175      3.38%     68.44% |         137      2.65%     71.08% |         134      2.59%     73.67% |         199      3.84%     77.52% |         129      2.49%     80.01% |         167      3.23%     83.23% |         187      3.61%     86.85% |         121      2.34%     89.18% |         206      3.98%     93.16% |         111      2.14%     95.31% |         243      4.69%    100.00%
system.ruby.L2Cache_Controller.MT_IB.WB_Data::total         5177                      
system.ruby.L2Cache_Controller.MT_IB.WB_Data_clean |           1      0.27%      0.27% |           3      0.80%      1.06% |           9      2.39%      3.45% |          10      2.65%      6.10% |           9      2.39%      8.49% |           6      1.59%     10.08% |           8      2.12%     12.20% |          20      5.31%     17.51% |          15      3.98%     21.49% |          23      6.10%     27.59% |          12      3.18%     30.77% |          16      4.24%     35.01% |           5      1.33%     36.34% |          17      4.51%     40.85% |          12      3.18%     44.03% |           6      1.59%     45.62% |          14      3.71%     49.34% |          16      4.24%     53.58% |          14      3.71%     57.29% |          17      4.51%     61.80% |          22      5.84%     67.64% |          13      3.45%     71.09% |          15      3.98%     75.07% |           9      2.39%     77.45% |          10      2.65%     80.11% |           7      1.86%     81.96% |          18      4.77%     86.74% |           9      2.39%     89.12% |           8      2.12%     91.25% |          12      3.18%     94.43% |           9      2.39%     96.82% |          12      3.18%    100.00%
system.ruby.L2Cache_Controller.MT_IB.WB_Data_clean::total          377                      
system.ruby.L2Cache_Controller.MT_SB.L1_GETS |          29      2.54%      2.54% |          32      2.80%      5.35% |          31      2.72%      8.06% |          33      2.89%     10.96% |          35      3.07%     14.02% |          35      3.07%     17.09% |          45      3.94%     21.03% |          36      3.16%     24.19% |          36      3.16%     27.34% |          39      3.42%     30.76% |          31      2.72%     33.48% |          36      3.16%     36.63% |          36      3.16%     39.79% |          35      3.07%     42.86% |          40      3.51%     46.36% |          40      3.51%     49.87% |          34      2.98%     52.85% |          40      3.51%     56.35% |          33      2.89%     59.25% |          31      2.72%     61.96% |          45      3.94%     65.91% |          29      2.54%     68.45% |          38      3.33%     71.78% |          29      2.54%     74.32% |          38      3.33%     77.65% |          35      3.07%     80.72% |          32      2.80%     83.52% |          34      2.98%     86.50% |          36      3.16%     89.66% |          39      3.42%     93.08% |          42      3.68%     96.76% |          37      3.24%    100.00%
system.ruby.L2Cache_Controller.MT_SB.L1_GETS::total         1141                      
system.ruby.L2Cache_Controller.MT_SB.L1_GETX |          18      3.47%      3.47% |          14      2.70%      6.18% |          11      2.12%      8.30% |          15      2.90%     11.20% |          18      3.47%     14.67% |           9      1.74%     16.41% |          16      3.09%     19.50% |          15      2.90%     22.39% |          17      3.28%     25.68% |          10      1.93%     27.61% |           9      1.74%     29.34% |          14      2.70%     32.05% |          15      2.90%     34.94% |          13      2.51%     37.45% |          13      2.51%     39.96% |          22      4.25%     44.21% |          19      3.67%     47.88% |          18      3.47%     51.35% |          16      3.09%     54.44% |          15      2.90%     57.34% |          14      2.70%     60.04% |          27      5.21%     65.25% |          16      3.09%     68.34% |          21      4.05%     72.39% |          24      4.63%     77.03% |          14      2.70%     79.73% |          22      4.25%     83.98% |          22      4.25%     88.22% |          18      3.47%     91.70% |          19      3.67%     95.37% |          12      2.32%     97.68% |          12      2.32%    100.00%
system.ruby.L2Cache_Controller.MT_SB.L1_GETX::total          518                      
system.ruby.L2Cache_Controller.MT_SB.L1_UPGRADE |           8      3.08%      3.08% |           7      2.69%      5.77% |           9      3.46%      9.23% |           6      2.31%     11.54% |           5      1.92%     13.46% |           8      3.08%     16.54% |          12      4.62%     21.15% |          15      5.77%     26.92% |           9      3.46%     30.38% |           6      2.31%     32.69% |           4      1.54%     34.23% |          10      3.85%     38.08% |          10      3.85%     41.92% |           8      3.08%     45.00% |           6      2.31%     47.31% |           9      3.46%     50.77% |          15      5.77%     56.54% |           4      1.54%     58.08% |           7      2.69%     60.77% |          11      4.23%     65.00% |           6      2.31%     67.31% |          10      3.85%     71.15% |          10      3.85%     75.00% |           8      3.08%     78.08% |           8      3.08%     81.15% |          10      3.85%     85.00% |           7      2.69%     87.69% |           3      1.15%     88.85% |           6      2.31%     91.15% |           8      3.08%     94.23% |           7      2.69%     96.92% |           8      3.08%    100.00%
system.ruby.L2Cache_Controller.MT_SB.L1_UPGRADE::total          260                      
system.ruby.L2Cache_Controller.MT_SB.Unblock |        7366      3.22%      3.22% |        7149      3.13%      6.35% |        7124      3.12%      9.47% |        7124      3.12%     12.59% |        7295      3.19%     15.78% |        7172      3.14%     18.92% |        7095      3.10%     22.02% |        7102      3.11%     25.13% |        7174      3.14%     28.27% |        7010      3.07%     31.34% |        7103      3.11%     34.45% |        7096      3.11%     37.55% |        7298      3.19%     40.74% |        7046      3.08%     43.83% |        7142      3.13%     46.95% |        7227      3.16%     50.12% |        7318      3.20%     53.32% |        7042      3.08%     56.40% |        7043      3.08%     59.48% |        7054      3.09%     62.57% |        7163      3.13%     65.70% |        7109      3.11%     68.81% |        7133      3.12%     71.94% |        7111      3.11%     75.05% |        7184      3.14%     78.19% |        7118      3.11%     81.31% |        7073      3.10%     84.40% |        7004      3.06%     87.47% |        7349      3.22%     90.68% |        7036      3.08%     93.76% |        7220      3.16%     96.92% |        7036      3.08%    100.00%
system.ruby.L2Cache_Controller.MT_SB.Unblock::total       228516                      
system.ruby.SimicsNetworkPortInterface_Controller.MessageSend |      315961     18.01%     18.01% |      877056     50.00%     68.01% |       69828      3.98%     71.99% |       75604      4.31%     76.30% |       69054      3.94%     80.24% |       74721      4.26%     84.50% |       70589      4.02%     88.52% |       76941      4.39%     92.91% |       60087      3.43%     96.34% |       64271      3.66%    100.00% |           0      0.00%    100.00% |           0      0.00%    100.00% |           0      0.00%    100.00% |           0      0.00%    100.00% |           0      0.00%    100.00% |           0      0.00%    100.00% |           0      0.00%    100.00% |           0      0.00%    100.00% |           0      0.00%    100.00% |           0      0.00%    100.00% |           0      0.00%    100.00% |           0      0.00%    100.00% |           0      0.00%    100.00% |           0      0.00%    100.00% |           0      0.00%    100.00% |           0      0.00%    100.00% |           0      0.00%    100.00% |           0      0.00%    100.00% |           0      0.00%    100.00% |           0      0.00%    100.00% |           0      0.00%    100.00% |           0      0.00%    100.00%
system.ruby.SimicsNetworkPortInterface_Controller.MessageSend::total      1754112                      
system.ruby.SimicsNetworkPortInterface_Controller.MessageRecv |      315961     18.01%     18.01% |      877056     50.00%     68.01% |       69828      3.98%     71.99% |       75604      4.31%     76.30% |       69054      3.94%     80.24% |       74721      4.26%     84.50% |       70589      4.02%     88.52% |       76941      4.39%     92.91% |       60087      3.43%     96.34% |       64271      3.66%    100.00% |           0      0.00%    100.00% |           0      0.00%    100.00% |           0      0.00%    100.00% |           0      0.00%    100.00% |           0      0.00%    100.00% |           0      0.00%    100.00% |           0      0.00%    100.00% |           0      0.00%    100.00% |           0      0.00%    100.00% |           0      0.00%    100.00% |           0      0.00%    100.00% |           0      0.00%    100.00% |           0      0.00%    100.00% |           0      0.00%    100.00% |           0      0.00%    100.00% |           0      0.00%    100.00% |           0      0.00%    100.00% |           0      0.00%    100.00% |           0      0.00%    100.00% |           0      0.00%    100.00% |           0      0.00%    100.00% |           0      0.00%    100.00%
system.ruby.SimicsNetworkPortInterface_Controller.MessageRecv::total      1754112                      
system.ruby.SimicsNetworkPortInterface_Controller.A.MessageSend |      315961     18.01%     18.01% |      877056     50.00%     68.01% |       69828      3.98%     71.99% |       75604      4.31%     76.30% |       69054      3.94%     80.24% |       74721      4.26%     84.50% |       70589      4.02%     88.52% |       76941      4.39%     92.91% |       60087      3.43%     96.34% |       64271      3.66%    100.00% |           0      0.00%    100.00% |           0      0.00%    100.00% |           0      0.00%    100.00% |           0      0.00%    100.00% |           0      0.00%    100.00% |           0      0.00%    100.00% |           0      0.00%    100.00% |           0      0.00%    100.00% |           0      0.00%    100.00% |           0      0.00%    100.00% |           0      0.00%    100.00% |           0      0.00%    100.00% |           0      0.00%    100.00% |           0      0.00%    100.00% |           0      0.00%    100.00% |           0      0.00%    100.00% |           0      0.00%    100.00% |           0      0.00%    100.00% |           0      0.00%    100.00% |           0      0.00%    100.00% |           0      0.00%    100.00% |           0      0.00%    100.00%
system.ruby.SimicsNetworkPortInterface_Controller.A.MessageSend::total      1754112                      
system.ruby.SimicsNetworkPortInterface_Controller.A.MessageRecv |      315961     18.01%     18.01% |      877056     50.00%     68.01% |       69828      3.98%     71.99% |       75604      4.31%     76.30% |       69054      3.94%     80.24% |       74721      4.26%     84.50% |       70589      4.02%     88.52% |       76941      4.39%     92.91% |       60087      3.43%     96.34% |       64271      3.66%    100.00% |           0      0.00%    100.00% |           0      0.00%    100.00% |           0      0.00%    100.00% |           0      0.00%    100.00% |           0      0.00%    100.00% |           0      0.00%    100.00% |           0      0.00%    100.00% |           0      0.00%    100.00% |           0      0.00%    100.00% |           0      0.00%    100.00% |           0      0.00%    100.00% |           0      0.00%    100.00% |           0      0.00%    100.00% |           0      0.00%    100.00% |           0      0.00%    100.00% |           0      0.00%    100.00% |           0      0.00%    100.00% |           0      0.00%    100.00% |           0      0.00%    100.00% |           0      0.00%    100.00% |           0      0.00%    100.00% |           0      0.00%    100.00%
system.ruby.SimicsNetworkPortInterface_Controller.A.MessageRecv::total      1754112                      
system.switch_cpus.kern.inst.arm                    0                       # number of arm instructions executed
system.switch_cpus.kern.inst.quiesce                0                       # number of quiesce instructions executed

---------- End Simulation Statistics   ----------
