
---------- Begin Simulation Statistics ----------
sim_seconds                                  0.038019                       # Number of seconds simulated
sim_ticks                                 38018844500                       # Number of ticks simulated
final_tick                               5214186923000                       # Number of ticks from beginning of simulation (restored from checkpoints and never reset)
sim_freq                                 1000000000000                       # Frequency of simulated ticks
host_inst_rate                                  69491                       # Simulator instruction rate (inst/s)
host_op_rate                                   124993                       # Simulator op (including micro ops) rate (op/s)
host_tick_rate                              108815125                       # Simulator tick rate (ticks/s)
host_mem_usage                                4761060                       # Number of bytes of host memory used
host_seconds                                   349.39                       # Real time elapsed on the host
sim_insts                                    24279516                       # Number of instructions simulated
sim_ops                                      43671192                       # Number of ops (including micro ops) simulated
system.voltage_domain.voltage                       1                       # Voltage in Volts
system.clk_domain.clock                           500                       # Clock period in ticks
system.mem_ctrls0.bytes_read::ruby.dir_cntrl0      4968640                       # Number of bytes read from this memory
system.mem_ctrls0.bytes_read::total           4968640                       # Number of bytes read from this memory
system.mem_ctrls0.bytes_written::ruby.dir_cntrl0      3964864                       # Number of bytes written to this memory
system.mem_ctrls0.bytes_written::total        3964864                       # Number of bytes written to this memory
system.mem_ctrls0.num_reads::ruby.dir_cntrl0        77635                       # Number of read requests responded to by this memory
system.mem_ctrls0.num_reads::total              77635                       # Number of read requests responded to by this memory
system.mem_ctrls0.num_writes::ruby.dir_cntrl0        61951                       # Number of write requests responded to by this memory
system.mem_ctrls0.num_writes::total             61951                       # Number of write requests responded to by this memory
system.mem_ctrls0.bw_read::ruby.dir_cntrl0    130688875                       # Total read bandwidth from this memory (bytes/s)
system.mem_ctrls0.bw_read::total            130688875                       # Total read bandwidth from this memory (bytes/s)
system.mem_ctrls0.bw_write::ruby.dir_cntrl0    104286810                       # Write bandwidth from this memory (bytes/s)
system.mem_ctrls0.bw_write::total           104286810                       # Write bandwidth from this memory (bytes/s)
system.mem_ctrls0.bw_total::ruby.dir_cntrl0    234975684                       # Total bandwidth to/from this memory (bytes/s)
system.mem_ctrls0.bw_total::total           234975684                       # Total bandwidth to/from this memory (bytes/s)
system.mem_ctrls0.readReqs                      77635                       # Number of read requests accepted
system.mem_ctrls0.writeReqs                     61951                       # Number of write requests accepted
system.mem_ctrls0.readBursts                    77635                       # Number of DRAM read bursts, including those serviced by the write queue
system.mem_ctrls0.writeBursts                   61951                       # Number of DRAM write bursts, including those merged in the write queue
system.mem_ctrls0.bytesReadDRAM               4967168                       # Total number of bytes read from DRAM
system.mem_ctrls0.bytesReadWrQ                   1472                       # Total number of bytes read from write queue
system.mem_ctrls0.bytesWritten                3964800                       # Total number of bytes written to DRAM
system.mem_ctrls0.bytesReadSys                4968640                       # Total read bytes from the system interface side
system.mem_ctrls0.bytesWrittenSys             3964864                       # Total written bytes from the system interface side
system.mem_ctrls0.servicedByWrQ                    23                       # Number of DRAM read bursts serviced by the write queue
system.mem_ctrls0.mergedWrBursts                    0                       # Number of DRAM write bursts merged with an existing one
system.mem_ctrls0.neitherReadNorWriteReqs            0                       # Number of requests that are neither read nor write
system.mem_ctrls0.perBankRdBursts::0             4397                       # Per bank write bursts
system.mem_ctrls0.perBankRdBursts::1             4840                       # Per bank write bursts
system.mem_ctrls0.perBankRdBursts::2             4545                       # Per bank write bursts
system.mem_ctrls0.perBankRdBursts::3             4966                       # Per bank write bursts
system.mem_ctrls0.perBankRdBursts::4             4853                       # Per bank write bursts
system.mem_ctrls0.perBankRdBursts::5             5351                       # Per bank write bursts
system.mem_ctrls0.perBankRdBursts::6             4948                       # Per bank write bursts
system.mem_ctrls0.perBankRdBursts::7             5222                       # Per bank write bursts
system.mem_ctrls0.perBankRdBursts::8             5045                       # Per bank write bursts
system.mem_ctrls0.perBankRdBursts::9             5202                       # Per bank write bursts
system.mem_ctrls0.perBankRdBursts::10            4616                       # Per bank write bursts
system.mem_ctrls0.perBankRdBursts::11            4794                       # Per bank write bursts
system.mem_ctrls0.perBankRdBursts::12            4591                       # Per bank write bursts
system.mem_ctrls0.perBankRdBursts::13            4630                       # Per bank write bursts
system.mem_ctrls0.perBankRdBursts::14            4797                       # Per bank write bursts
system.mem_ctrls0.perBankRdBursts::15            4815                       # Per bank write bursts
system.mem_ctrls0.perBankWrBursts::0             3624                       # Per bank write bursts
system.mem_ctrls0.perBankWrBursts::1             3568                       # Per bank write bursts
system.mem_ctrls0.perBankWrBursts::2             3643                       # Per bank write bursts
system.mem_ctrls0.perBankWrBursts::3             3794                       # Per bank write bursts
system.mem_ctrls0.perBankWrBursts::4             3862                       # Per bank write bursts
system.mem_ctrls0.perBankWrBursts::5             4191                       # Per bank write bursts
system.mem_ctrls0.perBankWrBursts::6             3928                       # Per bank write bursts
system.mem_ctrls0.perBankWrBursts::7             4183                       # Per bank write bursts
system.mem_ctrls0.perBankWrBursts::8             4057                       # Per bank write bursts
system.mem_ctrls0.perBankWrBursts::9             4133                       # Per bank write bursts
system.mem_ctrls0.perBankWrBursts::10            3697                       # Per bank write bursts
system.mem_ctrls0.perBankWrBursts::11            3637                       # Per bank write bursts
system.mem_ctrls0.perBankWrBursts::12            3795                       # Per bank write bursts
system.mem_ctrls0.perBankWrBursts::13            3901                       # Per bank write bursts
system.mem_ctrls0.perBankWrBursts::14            4028                       # Per bank write bursts
system.mem_ctrls0.perBankWrBursts::15            3909                       # Per bank write bursts
system.mem_ctrls0.numRdRetry                        1                       # Number of times read queue was full causing retry
system.mem_ctrls0.numWrRetry                      146                       # Number of times write queue was full causing retry
system.mem_ctrls0.totGap                  38018362500                       # Total gap between requests
system.mem_ctrls0.readPktSize::0                    0                       # Read request sizes (log2)
system.mem_ctrls0.readPktSize::1                    0                       # Read request sizes (log2)
system.mem_ctrls0.readPktSize::2                    0                       # Read request sizes (log2)
system.mem_ctrls0.readPktSize::3                    0                       # Read request sizes (log2)
system.mem_ctrls0.readPktSize::4                    0                       # Read request sizes (log2)
system.mem_ctrls0.readPktSize::5                    0                       # Read request sizes (log2)
system.mem_ctrls0.readPktSize::6                77635                       # Read request sizes (log2)
system.mem_ctrls0.writePktSize::0                   0                       # Write request sizes (log2)
system.mem_ctrls0.writePktSize::1                   0                       # Write request sizes (log2)
system.mem_ctrls0.writePktSize::2                   0                       # Write request sizes (log2)
system.mem_ctrls0.writePktSize::3                   0                       # Write request sizes (log2)
system.mem_ctrls0.writePktSize::4                   0                       # Write request sizes (log2)
system.mem_ctrls0.writePktSize::5                   0                       # Write request sizes (log2)
system.mem_ctrls0.writePktSize::6               61951                       # Write request sizes (log2)
system.mem_ctrls0.rdQLenPdf::0                  60092                       # What read queue length does an incoming req see
system.mem_ctrls0.rdQLenPdf::1                  10399                       # What read queue length does an incoming req see
system.mem_ctrls0.rdQLenPdf::2                   3410                       # What read queue length does an incoming req see
system.mem_ctrls0.rdQLenPdf::3                   1432                       # What read queue length does an incoming req see
system.mem_ctrls0.rdQLenPdf::4                    819                       # What read queue length does an incoming req see
system.mem_ctrls0.rdQLenPdf::5                    448                       # What read queue length does an incoming req see
system.mem_ctrls0.rdQLenPdf::6                    295                       # What read queue length does an incoming req see
system.mem_ctrls0.rdQLenPdf::7                    195                       # What read queue length does an incoming req see
system.mem_ctrls0.rdQLenPdf::8                    114                       # What read queue length does an incoming req see
system.mem_ctrls0.rdQLenPdf::9                     86                       # What read queue length does an incoming req see
system.mem_ctrls0.rdQLenPdf::10                    50                       # What read queue length does an incoming req see
system.mem_ctrls0.rdQLenPdf::11                    38                       # What read queue length does an incoming req see
system.mem_ctrls0.rdQLenPdf::12                    30                       # What read queue length does an incoming req see
system.mem_ctrls0.rdQLenPdf::13                    27                       # What read queue length does an incoming req see
system.mem_ctrls0.rdQLenPdf::14                    24                       # What read queue length does an incoming req see
system.mem_ctrls0.rdQLenPdf::15                    24                       # What read queue length does an incoming req see
system.mem_ctrls0.rdQLenPdf::16                    24                       # What read queue length does an incoming req see
system.mem_ctrls0.rdQLenPdf::17                    17                       # What read queue length does an incoming req see
system.mem_ctrls0.rdQLenPdf::18                    14                       # What read queue length does an incoming req see
system.mem_ctrls0.rdQLenPdf::19                    10                       # What read queue length does an incoming req see
system.mem_ctrls0.rdQLenPdf::20                    11                       # What read queue length does an incoming req see
system.mem_ctrls0.rdQLenPdf::21                    10                       # What read queue length does an incoming req see
system.mem_ctrls0.rdQLenPdf::22                    12                       # What read queue length does an incoming req see
system.mem_ctrls0.rdQLenPdf::23                    11                       # What read queue length does an incoming req see
system.mem_ctrls0.rdQLenPdf::24                     7                       # What read queue length does an incoming req see
system.mem_ctrls0.rdQLenPdf::25                     5                       # What read queue length does an incoming req see
system.mem_ctrls0.rdQLenPdf::26                     2                       # What read queue length does an incoming req see
system.mem_ctrls0.rdQLenPdf::27                     1                       # What read queue length does an incoming req see
system.mem_ctrls0.rdQLenPdf::28                     1                       # What read queue length does an incoming req see
system.mem_ctrls0.rdQLenPdf::29                     1                       # What read queue length does an incoming req see
system.mem_ctrls0.rdQLenPdf::30                     1                       # What read queue length does an incoming req see
system.mem_ctrls0.rdQLenPdf::31                     2                       # What read queue length does an incoming req see
system.mem_ctrls0.wrQLenPdf::0                  11521                       # What write queue length does an incoming req see
system.mem_ctrls0.wrQLenPdf::1                  12690                       # What write queue length does an incoming req see
system.mem_ctrls0.wrQLenPdf::2                  12644                       # What write queue length does an incoming req see
system.mem_ctrls0.wrQLenPdf::3                  12331                       # What write queue length does an incoming req see
system.mem_ctrls0.wrQLenPdf::4                  11934                       # What write queue length does an incoming req see
system.mem_ctrls0.wrQLenPdf::5                    411                       # What write queue length does an incoming req see
system.mem_ctrls0.wrQLenPdf::6                    175                       # What write queue length does an incoming req see
system.mem_ctrls0.wrQLenPdf::7                    245                       # What write queue length does an incoming req see
system.mem_ctrls0.bytesPerActivate::samples        52889                       # Bytes accessed per row activation
system.mem_ctrls0.bytesPerActivate::mean   168.859612                       # Bytes accessed per row activation
system.mem_ctrls0.bytesPerActivate::gmean   119.810827                       # Bytes accessed per row activation
system.mem_ctrls0.bytesPerActivate::stdev   175.494821                       # Bytes accessed per row activation
system.mem_ctrls0.bytesPerActivate::0-127        27303     51.62%     51.62% # Bytes accessed per row activation
system.mem_ctrls0.bytesPerActivate::128-255        12960     24.50%     76.13% # Bytes accessed per row activation
system.mem_ctrls0.bytesPerActivate::256-383         7633     14.43%     90.56% # Bytes accessed per row activation
system.mem_ctrls0.bytesPerActivate::384-511         1946      3.68%     94.24% # Bytes accessed per row activation
system.mem_ctrls0.bytesPerActivate::512-639         1115      2.11%     96.35% # Bytes accessed per row activation
system.mem_ctrls0.bytesPerActivate::640-767          623      1.18%     97.53% # Bytes accessed per row activation
system.mem_ctrls0.bytesPerActivate::768-895          419      0.79%     98.32% # Bytes accessed per row activation
system.mem_ctrls0.bytesPerActivate::896-1023          318      0.60%     98.92% # Bytes accessed per row activation
system.mem_ctrls0.bytesPerActivate::1024-1151          572      1.08%    100.00% # Bytes accessed per row activation
system.mem_ctrls0.bytesPerActivate::total        52889                       # Bytes accessed per row activation
system.mem_ctrls0.rdPerTurnAround::samples        11541                       # Reads before turning the bus around for writes
system.mem_ctrls0.rdPerTurnAround::mean      6.724634                       # Reads before turning the bus around for writes
system.mem_ctrls0.rdPerTurnAround::stdev    37.581328                       # Reads before turning the bus around for writes
system.mem_ctrls0.rdPerTurnAround::0-127        11535     99.95%     99.95% # Reads before turning the bus around for writes
system.mem_ctrls0.rdPerTurnAround::128-255            5      0.04%     99.99% # Reads before turning the bus around for writes
system.mem_ctrls0.rdPerTurnAround::3968-4095            1      0.01%    100.00% # Reads before turning the bus around for writes
system.mem_ctrls0.rdPerTurnAround::total        11541                       # Reads before turning the bus around for writes
system.mem_ctrls0.wrPerTurnAround::samples        11541                       # Writes before turning the bus around for reads
system.mem_ctrls0.wrPerTurnAround::mean      5.367819                       # Writes before turning the bus around for reads
system.mem_ctrls0.wrPerTurnAround::gmean     5.289177                       # Writes before turning the bus around for reads
system.mem_ctrls0.wrPerTurnAround::stdev     1.150224                       # Writes before turning the bus around for reads
system.mem_ctrls0.wrPerTurnAround::4-7          11040     95.66%     95.66% # Writes before turning the bus around for reads
system.mem_ctrls0.wrPerTurnAround::8-11           397      3.44%     99.10% # Writes before turning the bus around for reads
system.mem_ctrls0.wrPerTurnAround::12-15           81      0.70%     99.80% # Writes before turning the bus around for reads
system.mem_ctrls0.wrPerTurnAround::16-19           23      0.20%    100.00% # Writes before turning the bus around for reads
system.mem_ctrls0.wrPerTurnAround::total        11541                       # Writes before turning the bus around for reads
system.mem_ctrls0.totQLat                  1889911114                       # Total ticks spent queuing
system.mem_ctrls0.totMemAccLat             3345136114                       # Total ticks spent from burst creation until serviced by the DRAM
system.mem_ctrls0.totBusLat                 388060000                       # Total ticks spent in databus transfers
system.mem_ctrls0.avgQLat                    24350.76                       # Average queueing delay per DRAM burst
system.mem_ctrls0.avgBusLat                   5000.00                       # Average bus latency per DRAM burst
system.mem_ctrls0.avgMemAccLat               43100.76                       # Average memory access latency per DRAM burst
system.mem_ctrls0.avgRdBW                      130.65                       # Average DRAM read bandwidth in MiByte/s
system.mem_ctrls0.avgWrBW                      104.29                       # Average achieved write bandwidth in MiByte/s
system.mem_ctrls0.avgRdBWSys                   130.69                       # Average system read bandwidth in MiByte/s
system.mem_ctrls0.avgWrBWSys                   104.29                       # Average system write bandwidth in MiByte/s
system.mem_ctrls0.peakBW                     12800.00                       # Theoretical peak bandwidth in MiByte/s
system.mem_ctrls0.busUtil                        1.84                       # Data bus utilization in percentage
system.mem_ctrls0.busUtilRead                    1.02                       # Data bus utilization in percentage for reads
system.mem_ctrls0.busUtilWrite                   0.81                       # Data bus utilization in percentage for writes
system.mem_ctrls0.avgRdQLen                      1.10                       # Average read queue length when enqueuing
system.mem_ctrls0.avgWrQLen                      2.85                       # Average write queue length when enqueuing
system.mem_ctrls0.readRowHits                   53397                       # Number of row buffer hits during reads
system.mem_ctrls0.writeRowHits                  33267                       # Number of row buffer hits during writes
system.mem_ctrls0.readRowHitRate                68.80                       # Row buffer hit rate for reads
system.mem_ctrls0.writeRowHitRate               53.70                       # Row buffer hit rate for writes
system.mem_ctrls0.avgGap                    272365.15                       # Average gap between requests
system.mem_ctrls0.pageHitRate                   62.10                       # Row buffer hit rate, read and write combined
system.mem_ctrls0.memoryStateTime::IDLE    8567793750                       # Time in different power states
system.mem_ctrls0.memoryStateTime::REF     1269320000                       # Time in different power states
system.mem_ctrls0.memoryStateTime::PRE_PDN            0                       # Time in different power states
system.mem_ctrls0.memoryStateTime::ACT    28175632500                       # Time in different power states
system.mem_ctrls0.memoryStateTime::ACT_PDN            0                       # Time in different power states
system.mem_ctrls0.actEnergy::0              200113200                       # Energy for activate commands per rank (pJ)
system.mem_ctrls0.actEnergy::1              199682280                       # Energy for activate commands per rank (pJ)
system.mem_ctrls0.preEnergy::0              109188750                       # Energy for precharge commands per rank (pJ)
system.mem_ctrls0.preEnergy::1              108953625                       # Energy for precharge commands per rank (pJ)
system.mem_ctrls0.readEnergy::0             305089200                       # Energy for read commands per rank (pJ)
system.mem_ctrls0.readEnergy::1             300136200                       # Energy for read commands per rank (pJ)
system.mem_ctrls0.writeEnergy::0            199519200                       # Energy for write commands per rank (pJ)
system.mem_ctrls0.writeEnergy::1            201852000                       # Energy for write commands per rank (pJ)
system.mem_ctrls0.refreshEnergy::0         2482789920                       # Energy for refresh commands per rank (pJ)
system.mem_ctrls0.refreshEnergy::1         2482789920                       # Energy for refresh commands per rank (pJ)
system.mem_ctrls0.actBackEnergy::0        15265494900                       # Energy for active background per rank (pJ)
system.mem_ctrls0.actBackEnergy::1        14811949890                       # Energy for active background per rank (pJ)
system.mem_ctrls0.preBackEnergy::0         9416854500                       # Energy for precharge background per rank (pJ)
system.mem_ctrls0.preBackEnergy::1         9814701000                       # Energy for precharge background per rank (pJ)
system.mem_ctrls0.totalEnergy::0          27979049670                       # Total energy per rank (pJ)
system.mem_ctrls0.totalEnergy::1          27920064915                       # Total energy per rank (pJ)
system.mem_ctrls0.averagePower::0          736.044158                       # Core power per rank (mW)
system.mem_ctrls0.averagePower::1          734.492447                       # Core power per rank (mW)
system.mem_ctrls1.bytes_read::ruby.dir_cntrl1      4883008                       # Number of bytes read from this memory
system.mem_ctrls1.bytes_read::total           4883008                       # Number of bytes read from this memory
system.mem_ctrls1.bytes_written::ruby.dir_cntrl1      3886784                       # Number of bytes written to this memory
system.mem_ctrls1.bytes_written::total        3886784                       # Number of bytes written to this memory
system.mem_ctrls1.num_reads::ruby.dir_cntrl1        76297                       # Number of read requests responded to by this memory
system.mem_ctrls1.num_reads::total              76297                       # Number of read requests responded to by this memory
system.mem_ctrls1.num_writes::ruby.dir_cntrl1        60731                       # Number of write requests responded to by this memory
system.mem_ctrls1.num_writes::total             60731                       # Number of write requests responded to by this memory
system.mem_ctrls1.bw_read::ruby.dir_cntrl1    128436518                       # Total read bandwidth from this memory (bytes/s)
system.mem_ctrls1.bw_read::total            128436518                       # Total read bandwidth from this memory (bytes/s)
system.mem_ctrls1.bw_write::ruby.dir_cntrl1    102233091                       # Write bandwidth from this memory (bytes/s)
system.mem_ctrls1.bw_write::total           102233091                       # Write bandwidth from this memory (bytes/s)
system.mem_ctrls1.bw_total::ruby.dir_cntrl1    230669609                       # Total bandwidth to/from this memory (bytes/s)
system.mem_ctrls1.bw_total::total           230669609                       # Total bandwidth to/from this memory (bytes/s)
system.mem_ctrls1.readReqs                      76297                       # Number of read requests accepted
system.mem_ctrls1.writeReqs                     60731                       # Number of write requests accepted
system.mem_ctrls1.readBursts                    76297                       # Number of DRAM read bursts, including those serviced by the write queue
system.mem_ctrls1.writeBursts                   60731                       # Number of DRAM write bursts, including those merged in the write queue
system.mem_ctrls1.bytesReadDRAM               4882240                       # Total number of bytes read from DRAM
system.mem_ctrls1.bytesReadWrQ                    768                       # Total number of bytes read from write queue
system.mem_ctrls1.bytesWritten                3886784                       # Total number of bytes written to DRAM
system.mem_ctrls1.bytesReadSys                4883008                       # Total read bytes from the system interface side
system.mem_ctrls1.bytesWrittenSys             3886784                       # Total written bytes from the system interface side
system.mem_ctrls1.servicedByWrQ                    12                       # Number of DRAM read bursts serviced by the write queue
system.mem_ctrls1.mergedWrBursts                    0                       # Number of DRAM write bursts merged with an existing one
system.mem_ctrls1.neitherReadNorWriteReqs            0                       # Number of requests that are neither read nor write
system.mem_ctrls1.perBankRdBursts::0             4327                       # Per bank write bursts
system.mem_ctrls1.perBankRdBursts::1             4749                       # Per bank write bursts
system.mem_ctrls1.perBankRdBursts::2             4465                       # Per bank write bursts
system.mem_ctrls1.perBankRdBursts::3             4894                       # Per bank write bursts
system.mem_ctrls1.perBankRdBursts::4             4783                       # Per bank write bursts
system.mem_ctrls1.perBankRdBursts::5             5298                       # Per bank write bursts
system.mem_ctrls1.perBankRdBursts::6             4886                       # Per bank write bursts
system.mem_ctrls1.perBankRdBursts::7             5164                       # Per bank write bursts
system.mem_ctrls1.perBankRdBursts::8             4941                       # Per bank write bursts
system.mem_ctrls1.perBankRdBursts::9             5091                       # Per bank write bursts
system.mem_ctrls1.perBankRdBursts::10            4517                       # Per bank write bursts
system.mem_ctrls1.perBankRdBursts::11            4727                       # Per bank write bursts
system.mem_ctrls1.perBankRdBursts::12            4493                       # Per bank write bursts
system.mem_ctrls1.perBankRdBursts::13            4574                       # Per bank write bursts
system.mem_ctrls1.perBankRdBursts::14            4636                       # Per bank write bursts
system.mem_ctrls1.perBankRdBursts::15            4740                       # Per bank write bursts
system.mem_ctrls1.perBankWrBursts::0             3559                       # Per bank write bursts
system.mem_ctrls1.perBankWrBursts::1             3507                       # Per bank write bursts
system.mem_ctrls1.perBankWrBursts::2             3578                       # Per bank write bursts
system.mem_ctrls1.perBankWrBursts::3             3743                       # Per bank write bursts
system.mem_ctrls1.perBankWrBursts::4             3792                       # Per bank write bursts
system.mem_ctrls1.perBankWrBursts::5             4122                       # Per bank write bursts
system.mem_ctrls1.perBankWrBursts::6             3850                       # Per bank write bursts
system.mem_ctrls1.perBankWrBursts::7             4100                       # Per bank write bursts
system.mem_ctrls1.perBankWrBursts::8             3972                       # Per bank write bursts
system.mem_ctrls1.perBankWrBursts::9             4036                       # Per bank write bursts
system.mem_ctrls1.perBankWrBursts::10            3617                       # Per bank write bursts
system.mem_ctrls1.perBankWrBursts::11            3570                       # Per bank write bursts
system.mem_ctrls1.perBankWrBursts::12            3719                       # Per bank write bursts
system.mem_ctrls1.perBankWrBursts::13            3830                       # Per bank write bursts
system.mem_ctrls1.perBankWrBursts::14            3899                       # Per bank write bursts
system.mem_ctrls1.perBankWrBursts::15            3837                       # Per bank write bursts
system.mem_ctrls1.numRdRetry                        3                       # Number of times read queue was full causing retry
system.mem_ctrls1.numWrRetry                      164                       # Number of times write queue was full causing retry
system.mem_ctrls1.totGap                  38018124500                       # Total gap between requests
system.mem_ctrls1.readPktSize::0                    0                       # Read request sizes (log2)
system.mem_ctrls1.readPktSize::1                    0                       # Read request sizes (log2)
system.mem_ctrls1.readPktSize::2                    0                       # Read request sizes (log2)
system.mem_ctrls1.readPktSize::3                    0                       # Read request sizes (log2)
system.mem_ctrls1.readPktSize::4                    0                       # Read request sizes (log2)
system.mem_ctrls1.readPktSize::5                    0                       # Read request sizes (log2)
system.mem_ctrls1.readPktSize::6                76297                       # Read request sizes (log2)
system.mem_ctrls1.writePktSize::0                   0                       # Write request sizes (log2)
system.mem_ctrls1.writePktSize::1                   0                       # Write request sizes (log2)
system.mem_ctrls1.writePktSize::2                   0                       # Write request sizes (log2)
system.mem_ctrls1.writePktSize::3                   0                       # Write request sizes (log2)
system.mem_ctrls1.writePktSize::4                   0                       # Write request sizes (log2)
system.mem_ctrls1.writePktSize::5                   0                       # Write request sizes (log2)
system.mem_ctrls1.writePktSize::6               60731                       # Write request sizes (log2)
system.mem_ctrls1.rdQLenPdf::0                  59448                       # What read queue length does an incoming req see
system.mem_ctrls1.rdQLenPdf::1                  10024                       # What read queue length does an incoming req see
system.mem_ctrls1.rdQLenPdf::2                   3214                       # What read queue length does an incoming req see
system.mem_ctrls1.rdQLenPdf::3                   1391                       # What read queue length does an incoming req see
system.mem_ctrls1.rdQLenPdf::4                    765                       # What read queue length does an incoming req see
system.mem_ctrls1.rdQLenPdf::5                    464                       # What read queue length does an incoming req see
system.mem_ctrls1.rdQLenPdf::6                    309                       # What read queue length does an incoming req see
system.mem_ctrls1.rdQLenPdf::7                    187                       # What read queue length does an incoming req see
system.mem_ctrls1.rdQLenPdf::8                    106                       # What read queue length does an incoming req see
system.mem_ctrls1.rdQLenPdf::9                     74                       # What read queue length does an incoming req see
system.mem_ctrls1.rdQLenPdf::10                    48                       # What read queue length does an incoming req see
system.mem_ctrls1.rdQLenPdf::11                    39                       # What read queue length does an incoming req see
system.mem_ctrls1.rdQLenPdf::12                    39                       # What read queue length does an incoming req see
system.mem_ctrls1.rdQLenPdf::13                    31                       # What read queue length does an incoming req see
system.mem_ctrls1.rdQLenPdf::14                    21                       # What read queue length does an incoming req see
system.mem_ctrls1.rdQLenPdf::15                    22                       # What read queue length does an incoming req see
system.mem_ctrls1.rdQLenPdf::16                    12                       # What read queue length does an incoming req see
system.mem_ctrls1.rdQLenPdf::17                    10                       # What read queue length does an incoming req see
system.mem_ctrls1.rdQLenPdf::18                     8                       # What read queue length does an incoming req see
system.mem_ctrls1.rdQLenPdf::19                     9                       # What read queue length does an incoming req see
system.mem_ctrls1.rdQLenPdf::20                    11                       # What read queue length does an incoming req see
system.mem_ctrls1.rdQLenPdf::21                     9                       # What read queue length does an incoming req see
system.mem_ctrls1.rdQLenPdf::22                    10                       # What read queue length does an incoming req see
system.mem_ctrls1.rdQLenPdf::23                     9                       # What read queue length does an incoming req see
system.mem_ctrls1.rdQLenPdf::24                     6                       # What read queue length does an incoming req see
system.mem_ctrls1.rdQLenPdf::25                     7                       # What read queue length does an incoming req see
system.mem_ctrls1.rdQLenPdf::26                     4                       # What read queue length does an incoming req see
system.mem_ctrls1.rdQLenPdf::27                     1                       # What read queue length does an incoming req see
system.mem_ctrls1.rdQLenPdf::28                     1                       # What read queue length does an incoming req see
system.mem_ctrls1.rdQLenPdf::29                     1                       # What read queue length does an incoming req see
system.mem_ctrls1.rdQLenPdf::30                     1                       # What read queue length does an incoming req see
system.mem_ctrls1.rdQLenPdf::31                     4                       # What read queue length does an incoming req see
system.mem_ctrls1.wrQLenPdf::0                  11303                       # What write queue length does an incoming req see
system.mem_ctrls1.wrQLenPdf::1                  12292                       # What write queue length does an incoming req see
system.mem_ctrls1.wrQLenPdf::2                  12392                       # What write queue length does an incoming req see
system.mem_ctrls1.wrQLenPdf::3                  12099                       # What write queue length does an incoming req see
system.mem_ctrls1.wrQLenPdf::4                  11742                       # What write queue length does an incoming req see
system.mem_ctrls1.wrQLenPdf::5                    446                       # What write queue length does an incoming req see
system.mem_ctrls1.wrQLenPdf::6                    199                       # What write queue length does an incoming req see
system.mem_ctrls1.wrQLenPdf::7                    258                       # What write queue length does an incoming req see
system.mem_ctrls1.bytesPerActivate::samples        50847                       # Bytes accessed per row activation
system.mem_ctrls1.bytesPerActivate::mean   172.438885                       # Bytes accessed per row activation
system.mem_ctrls1.bytesPerActivate::gmean   121.679367                       # Bytes accessed per row activation
system.mem_ctrls1.bytesPerActivate::stdev   179.373521                       # Bytes accessed per row activation
system.mem_ctrls1.bytesPerActivate::0-127        25856     50.85%     50.85% # Bytes accessed per row activation
system.mem_ctrls1.bytesPerActivate::128-255        12429     24.44%     75.29% # Bytes accessed per row activation
system.mem_ctrls1.bytesPerActivate::256-383         7574     14.90%     90.19% # Bytes accessed per row activation
system.mem_ctrls1.bytesPerActivate::384-511         1885      3.71%     93.90% # Bytes accessed per row activation
system.mem_ctrls1.bytesPerActivate::512-639         1131      2.22%     96.12% # Bytes accessed per row activation
system.mem_ctrls1.bytesPerActivate::640-767          611      1.20%     97.32% # Bytes accessed per row activation
system.mem_ctrls1.bytesPerActivate::768-895          456      0.90%     98.22% # Bytes accessed per row activation
system.mem_ctrls1.bytesPerActivate::896-1023          309      0.61%     98.83% # Bytes accessed per row activation
system.mem_ctrls1.bytesPerActivate::1024-1151          596      1.17%    100.00% # Bytes accessed per row activation
system.mem_ctrls1.bytesPerActivate::total        50847                       # Bytes accessed per row activation
system.mem_ctrls1.rdPerTurnAround::samples        11324                       # Reads before turning the bus around for writes
system.mem_ctrls1.rdPerTurnAround::mean      6.736577                       # Reads before turning the bus around for writes
system.mem_ctrls1.rdPerTurnAround::stdev    29.908048                       # Reads before turning the bus around for writes
system.mem_ctrls1.rdPerTurnAround::0-127        11319     99.96%     99.96% # Reads before turning the bus around for writes
system.mem_ctrls1.rdPerTurnAround::128-255            3      0.03%     99.98% # Reads before turning the bus around for writes
system.mem_ctrls1.rdPerTurnAround::1152-1279            1      0.01%     99.99% # Reads before turning the bus around for writes
system.mem_ctrls1.rdPerTurnAround::2816-2943            1      0.01%    100.00% # Reads before turning the bus around for writes
system.mem_ctrls1.rdPerTurnAround::total        11324                       # Reads before turning the bus around for writes
system.mem_ctrls1.wrPerTurnAround::samples        11324                       # Writes before turning the bus around for reads
system.mem_ctrls1.wrPerTurnAround::mean      5.363034                       # Writes before turning the bus around for reads
system.mem_ctrls1.wrPerTurnAround::gmean     5.283888                       # Writes before turning the bus around for reads
system.mem_ctrls1.wrPerTurnAround::stdev     1.159784                       # Writes before turning the bus around for reads
system.mem_ctrls1.wrPerTurnAround::4-7          10848     95.80%     95.80% # Writes before turning the bus around for reads
system.mem_ctrls1.wrPerTurnAround::8-11           374      3.30%     99.10% # Writes before turning the bus around for reads
system.mem_ctrls1.wrPerTurnAround::12-15           76      0.67%     99.77% # Writes before turning the bus around for reads
system.mem_ctrls1.wrPerTurnAround::16-19           26      0.23%    100.00% # Writes before turning the bus around for reads
system.mem_ctrls1.wrPerTurnAround::total        11324                       # Writes before turning the bus around for reads
system.mem_ctrls1.totQLat                  1805939312                       # Total ticks spent queuing
system.mem_ctrls1.totMemAccLat             3236283062                       # Total ticks spent from burst creation until serviced by the DRAM
system.mem_ctrls1.totBusLat                 381425000                       # Total ticks spent in databus transfers
system.mem_ctrls1.avgQLat                    23673.58                       # Average queueing delay per DRAM burst
system.mem_ctrls1.avgBusLat                   5000.00                       # Average bus latency per DRAM burst
system.mem_ctrls1.avgMemAccLat               42423.58                       # Average memory access latency per DRAM burst
system.mem_ctrls1.avgRdBW                      128.42                       # Average DRAM read bandwidth in MiByte/s
system.mem_ctrls1.avgWrBW                      102.23                       # Average achieved write bandwidth in MiByte/s
system.mem_ctrls1.avgRdBWSys                   128.44                       # Average system read bandwidth in MiByte/s
system.mem_ctrls1.avgWrBWSys                   102.23                       # Average system write bandwidth in MiByte/s
system.mem_ctrls1.peakBW                     12800.00                       # Theoretical peak bandwidth in MiByte/s
system.mem_ctrls1.busUtil                        1.80                       # Data bus utilization in percentage
system.mem_ctrls1.busUtilRead                    1.00                       # Data bus utilization in percentage for reads
system.mem_ctrls1.busUtilWrite                   0.80                       # Data bus utilization in percentage for writes
system.mem_ctrls1.avgRdQLen                      1.07                       # Average read queue length when enqueuing
system.mem_ctrls1.avgWrQLen                      2.91                       # Average write queue length when enqueuing
system.mem_ctrls1.readRowHits                   52723                       # Number of row buffer hits during reads
system.mem_ctrls1.writeRowHits                  33435                       # Number of row buffer hits during writes
system.mem_ctrls1.readRowHitRate                69.11                       # Row buffer hit rate for reads
system.mem_ctrls1.writeRowHitRate               55.05                       # Row buffer hit rate for writes
system.mem_ctrls1.avgGap                    277447.85                       # Average gap between requests
system.mem_ctrls1.pageHitRate                   62.88                       # Row buffer hit rate, read and write combined
system.mem_ctrls1.memoryStateTime::IDLE    8927137500                       # Time in different power states
system.mem_ctrls1.memoryStateTime::REF     1269320000                       # Time in different power states
system.mem_ctrls1.memoryStateTime::PRE_PDN            0                       # Time in different power states
system.mem_ctrls1.memoryStateTime::ACT    27816469500                       # Time in different power states
system.mem_ctrls1.memoryStateTime::ACT_PDN            0                       # Time in different power states
system.mem_ctrls1.actEnergy::0              193543560                       # Energy for activate commands per rank (pJ)
system.mem_ctrls1.actEnergy::1              190784160                       # Energy for activate commands per rank (pJ)
system.mem_ctrls1.preEnergy::0              105604125                       # Energy for precharge commands per rank (pJ)
system.mem_ctrls1.preEnergy::1              104098500                       # Energy for precharge commands per rank (pJ)
system.mem_ctrls1.readEnergy::0             300729000                       # Energy for read commands per rank (pJ)
system.mem_ctrls1.readEnergy::1             294114600                       # Energy for read commands per rank (pJ)
system.mem_ctrls1.writeEnergy::0            196020000                       # Energy for write commands per rank (pJ)
system.mem_ctrls1.writeEnergy::1            197419680                       # Energy for write commands per rank (pJ)
system.mem_ctrls1.refreshEnergy::0         2482789920                       # Energy for refresh commands per rank (pJ)
system.mem_ctrls1.refreshEnergy::1         2482789920                       # Energy for refresh commands per rank (pJ)
system.mem_ctrls1.actBackEnergy::0        15130399770                       # Energy for active background per rank (pJ)
system.mem_ctrls1.actBackEnergy::1        14414193630                       # Energy for active background per rank (pJ)
system.mem_ctrls1.preBackEnergy::0         9535359000                       # Energy for precharge background per rank (pJ)
system.mem_ctrls1.preBackEnergy::1        10163610000                       # Energy for precharge background per rank (pJ)
system.mem_ctrls1.totalEnergy::0          27944445375                       # Total energy per rank (pJ)
system.mem_ctrls1.totalEnergy::1          27847010490                       # Total energy per rank (pJ)
system.mem_ctrls1.averagePower::0          735.133823                       # Core power per rank (mW)
system.mem_ctrls1.averagePower::1          732.570606                       # Core power per rank (mW)
system.mem_ctrls2.bytes_read::ruby.dir_cntrl2      4881600                       # Number of bytes read from this memory
system.mem_ctrls2.bytes_read::total           4881600                       # Number of bytes read from this memory
system.mem_ctrls2.bytes_written::ruby.dir_cntrl2      3886080                       # Number of bytes written to this memory
system.mem_ctrls2.bytes_written::total        3886080                       # Number of bytes written to this memory
system.mem_ctrls2.num_reads::ruby.dir_cntrl2        76275                       # Number of read requests responded to by this memory
system.mem_ctrls2.num_reads::total              76275                       # Number of read requests responded to by this memory
system.mem_ctrls2.num_writes::ruby.dir_cntrl2        60720                       # Number of write requests responded to by this memory
system.mem_ctrls2.num_writes::total             60720                       # Number of write requests responded to by this memory
system.mem_ctrls2.bw_read::ruby.dir_cntrl2    128399484                       # Total read bandwidth from this memory (bytes/s)
system.mem_ctrls2.bw_read::total            128399484                       # Total read bandwidth from this memory (bytes/s)
system.mem_ctrls2.bw_write::ruby.dir_cntrl2    102214574                       # Write bandwidth from this memory (bytes/s)
system.mem_ctrls2.bw_write::total           102214574                       # Write bandwidth from this memory (bytes/s)
system.mem_ctrls2.bw_total::ruby.dir_cntrl2    230614058                       # Total bandwidth to/from this memory (bytes/s)
system.mem_ctrls2.bw_total::total           230614058                       # Total bandwidth to/from this memory (bytes/s)
system.mem_ctrls2.readReqs                      76275                       # Number of read requests accepted
system.mem_ctrls2.writeReqs                     60720                       # Number of write requests accepted
system.mem_ctrls2.readBursts                    76275                       # Number of DRAM read bursts, including those serviced by the write queue
system.mem_ctrls2.writeBursts                   60720                       # Number of DRAM write bursts, including those merged in the write queue
system.mem_ctrls2.bytesReadDRAM               4880640                       # Total number of bytes read from DRAM
system.mem_ctrls2.bytesReadWrQ                    960                       # Total number of bytes read from write queue
system.mem_ctrls2.bytesWritten                3885824                       # Total number of bytes written to DRAM
system.mem_ctrls2.bytesReadSys                4881600                       # Total read bytes from the system interface side
system.mem_ctrls2.bytesWrittenSys             3886080                       # Total written bytes from the system interface side
system.mem_ctrls2.servicedByWrQ                    15                       # Number of DRAM read bursts serviced by the write queue
system.mem_ctrls2.mergedWrBursts                    0                       # Number of DRAM write bursts merged with an existing one
system.mem_ctrls2.neitherReadNorWriteReqs            0                       # Number of requests that are neither read nor write
system.mem_ctrls2.perBankRdBursts::0             4319                       # Per bank write bursts
system.mem_ctrls2.perBankRdBursts::1             4754                       # Per bank write bursts
system.mem_ctrls2.perBankRdBursts::2             4470                       # Per bank write bursts
system.mem_ctrls2.perBankRdBursts::3             4903                       # Per bank write bursts
system.mem_ctrls2.perBankRdBursts::4             4777                       # Per bank write bursts
system.mem_ctrls2.perBankRdBursts::5             5293                       # Per bank write bursts
system.mem_ctrls2.perBankRdBursts::6             4862                       # Per bank write bursts
system.mem_ctrls2.perBankRdBursts::7             5164                       # Per bank write bursts
system.mem_ctrls2.perBankRdBursts::8             4919                       # Per bank write bursts
system.mem_ctrls2.perBankRdBursts::9             5101                       # Per bank write bursts
system.mem_ctrls2.perBankRdBursts::10            4520                       # Per bank write bursts
system.mem_ctrls2.perBankRdBursts::11            4768                       # Per bank write bursts
system.mem_ctrls2.perBankRdBursts::12            4492                       # Per bank write bursts
system.mem_ctrls2.perBankRdBursts::13            4542                       # Per bank write bursts
system.mem_ctrls2.perBankRdBursts::14            4623                       # Per bank write bursts
system.mem_ctrls2.perBankRdBursts::15            4753                       # Per bank write bursts
system.mem_ctrls2.perBankWrBursts::0             3555                       # Per bank write bursts
system.mem_ctrls2.perBankWrBursts::1             3509                       # Per bank write bursts
system.mem_ctrls2.perBankWrBursts::2             3572                       # Per bank write bursts
system.mem_ctrls2.perBankWrBursts::3             3732                       # Per bank write bursts
system.mem_ctrls2.perBankWrBursts::4             3787                       # Per bank write bursts
system.mem_ctrls2.perBankWrBursts::5             4117                       # Per bank write bursts
system.mem_ctrls2.perBankWrBursts::6             3853                       # Per bank write bursts
system.mem_ctrls2.perBankWrBursts::7             4114                       # Per bank write bursts
system.mem_ctrls2.perBankWrBursts::8             3968                       # Per bank write bursts
system.mem_ctrls2.perBankWrBursts::9             4046                       # Per bank write bursts
system.mem_ctrls2.perBankWrBursts::10            3616                       # Per bank write bursts
system.mem_ctrls2.perBankWrBursts::11            3577                       # Per bank write bursts
system.mem_ctrls2.perBankWrBursts::12            3718                       # Per bank write bursts
system.mem_ctrls2.perBankWrBursts::13            3820                       # Per bank write bursts
system.mem_ctrls2.perBankWrBursts::14            3893                       # Per bank write bursts
system.mem_ctrls2.perBankWrBursts::15            3839                       # Per bank write bursts
system.mem_ctrls2.numRdRetry                        0                       # Number of times read queue was full causing retry
system.mem_ctrls2.numWrRetry                      137                       # Number of times write queue was full causing retry
system.mem_ctrls2.totGap                  38018612500                       # Total gap between requests
system.mem_ctrls2.readPktSize::0                    0                       # Read request sizes (log2)
system.mem_ctrls2.readPktSize::1                    0                       # Read request sizes (log2)
system.mem_ctrls2.readPktSize::2                    0                       # Read request sizes (log2)
system.mem_ctrls2.readPktSize::3                    0                       # Read request sizes (log2)
system.mem_ctrls2.readPktSize::4                    0                       # Read request sizes (log2)
system.mem_ctrls2.readPktSize::5                    0                       # Read request sizes (log2)
system.mem_ctrls2.readPktSize::6                76275                       # Read request sizes (log2)
system.mem_ctrls2.writePktSize::0                   0                       # Write request sizes (log2)
system.mem_ctrls2.writePktSize::1                   0                       # Write request sizes (log2)
system.mem_ctrls2.writePktSize::2                   0                       # Write request sizes (log2)
system.mem_ctrls2.writePktSize::3                   0                       # Write request sizes (log2)
system.mem_ctrls2.writePktSize::4                   0                       # Write request sizes (log2)
system.mem_ctrls2.writePktSize::5                   0                       # Write request sizes (log2)
system.mem_ctrls2.writePktSize::6               60720                       # Write request sizes (log2)
system.mem_ctrls2.rdQLenPdf::0                  59681                       # What read queue length does an incoming req see
system.mem_ctrls2.rdQLenPdf::1                   9873                       # What read queue length does an incoming req see
system.mem_ctrls2.rdQLenPdf::2                   3234                       # What read queue length does an incoming req see
system.mem_ctrls2.rdQLenPdf::3                   1432                       # What read queue length does an incoming req see
system.mem_ctrls2.rdQLenPdf::4                    744                       # What read queue length does an incoming req see
system.mem_ctrls2.rdQLenPdf::5                    424                       # What read queue length does an incoming req see
system.mem_ctrls2.rdQLenPdf::6                    261                       # What read queue length does an incoming req see
system.mem_ctrls2.rdQLenPdf::7                    162                       # What read queue length does an incoming req see
system.mem_ctrls2.rdQLenPdf::8                     94                       # What read queue length does an incoming req see
system.mem_ctrls2.rdQLenPdf::9                     66                       # What read queue length does an incoming req see
system.mem_ctrls2.rdQLenPdf::10                    58                       # What read queue length does an incoming req see
system.mem_ctrls2.rdQLenPdf::11                    48                       # What read queue length does an incoming req see
system.mem_ctrls2.rdQLenPdf::12                    42                       # What read queue length does an incoming req see
system.mem_ctrls2.rdQLenPdf::13                    33                       # What read queue length does an incoming req see
system.mem_ctrls2.rdQLenPdf::14                    32                       # What read queue length does an incoming req see
system.mem_ctrls2.rdQLenPdf::15                    24                       # What read queue length does an incoming req see
system.mem_ctrls2.rdQLenPdf::16                    14                       # What read queue length does an incoming req see
system.mem_ctrls2.rdQLenPdf::17                     8                       # What read queue length does an incoming req see
system.mem_ctrls2.rdQLenPdf::18                     7                       # What read queue length does an incoming req see
system.mem_ctrls2.rdQLenPdf::19                     5                       # What read queue length does an incoming req see
system.mem_ctrls2.rdQLenPdf::20                     4                       # What read queue length does an incoming req see
system.mem_ctrls2.rdQLenPdf::21                     5                       # What read queue length does an incoming req see
system.mem_ctrls2.rdQLenPdf::22                     5                       # What read queue length does an incoming req see
system.mem_ctrls2.rdQLenPdf::23                     2                       # What read queue length does an incoming req see
system.mem_ctrls2.rdQLenPdf::24                     2                       # What read queue length does an incoming req see
system.mem_ctrls2.rdQLenPdf::25                     0                       # What read queue length does an incoming req see
system.mem_ctrls2.rdQLenPdf::26                     0                       # What read queue length does an incoming req see
system.mem_ctrls2.rdQLenPdf::27                     0                       # What read queue length does an incoming req see
system.mem_ctrls2.rdQLenPdf::28                     0                       # What read queue length does an incoming req see
system.mem_ctrls2.rdQLenPdf::29                     0                       # What read queue length does an incoming req see
system.mem_ctrls2.rdQLenPdf::30                     0                       # What read queue length does an incoming req see
system.mem_ctrls2.rdQLenPdf::31                     0                       # What read queue length does an incoming req see
system.mem_ctrls2.wrQLenPdf::0                  11347                       # What write queue length does an incoming req see
system.mem_ctrls2.wrQLenPdf::1                  12374                       # What write queue length does an incoming req see
system.mem_ctrls2.wrQLenPdf::2                  12327                       # What write queue length does an incoming req see
system.mem_ctrls2.wrQLenPdf::3                  12094                       # What write queue length does an incoming req see
system.mem_ctrls2.wrQLenPdf::4                  11744                       # What write queue length does an incoming req see
system.mem_ctrls2.wrQLenPdf::5                    421                       # What write queue length does an incoming req see
system.mem_ctrls2.wrQLenPdf::6                    185                       # What write queue length does an incoming req see
system.mem_ctrls2.wrQLenPdf::7                    228                       # What write queue length does an incoming req see
system.mem_ctrls2.bytesPerActivate::samples        50924                       # Bytes accessed per row activation
system.mem_ctrls2.bytesPerActivate::mean   172.119079                       # Bytes accessed per row activation
system.mem_ctrls2.bytesPerActivate::gmean   121.618994                       # Bytes accessed per row activation
system.mem_ctrls2.bytesPerActivate::stdev   178.541366                       # Bytes accessed per row activation
system.mem_ctrls2.bytesPerActivate::0-127        25898     50.86%     50.86% # Bytes accessed per row activation
system.mem_ctrls2.bytesPerActivate::128-255        12478     24.50%     75.36% # Bytes accessed per row activation
system.mem_ctrls2.bytesPerActivate::256-383         7561     14.85%     90.21% # Bytes accessed per row activation
system.mem_ctrls2.bytesPerActivate::384-511         1923      3.78%     93.98% # Bytes accessed per row activation
system.mem_ctrls2.bytesPerActivate::512-639         1117      2.19%     96.18% # Bytes accessed per row activation
system.mem_ctrls2.bytesPerActivate::640-767          601      1.18%     97.36% # Bytes accessed per row activation
system.mem_ctrls2.bytesPerActivate::768-895          458      0.90%     98.26% # Bytes accessed per row activation
system.mem_ctrls2.bytesPerActivate::896-1023          305      0.60%     98.86% # Bytes accessed per row activation
system.mem_ctrls2.bytesPerActivate::1024-1151          583      1.14%    100.00% # Bytes accessed per row activation
system.mem_ctrls2.bytesPerActivate::total        50924                       # Bytes accessed per row activation
system.mem_ctrls2.rdPerTurnAround::samples        11359                       # Reads before turning the bus around for writes
system.mem_ctrls2.rdPerTurnAround::mean      6.712827                       # Reads before turning the bus around for writes
system.mem_ctrls2.rdPerTurnAround::stdev    29.929090                       # Reads before turning the bus around for writes
system.mem_ctrls2.rdPerTurnAround::0-127        11354     99.96%     99.96% # Reads before turning the bus around for writes
system.mem_ctrls2.rdPerTurnAround::128-255            3      0.03%     99.98% # Reads before turning the bus around for writes
system.mem_ctrls2.rdPerTurnAround::1152-1279            1      0.01%     99.99% # Reads before turning the bus around for writes
system.mem_ctrls2.rdPerTurnAround::2816-2943            1      0.01%    100.00% # Reads before turning the bus around for writes
system.mem_ctrls2.rdPerTurnAround::total        11359                       # Reads before turning the bus around for writes
system.mem_ctrls2.wrPerTurnAround::samples        11359                       # Writes before turning the bus around for reads
system.mem_ctrls2.wrPerTurnAround::mean      5.345189                       # Writes before turning the bus around for reads
system.mem_ctrls2.wrPerTurnAround::gmean     5.273740                       # Writes before turning the bus around for reads
system.mem_ctrls2.wrPerTurnAround::stdev     1.087537                       # Writes before turning the bus around for reads
system.mem_ctrls2.wrPerTurnAround::4-7          10919     96.13%     96.13% # Writes before turning the bus around for reads
system.mem_ctrls2.wrPerTurnAround::8-11           353      3.11%     99.23% # Writes before turning the bus around for reads
system.mem_ctrls2.wrPerTurnAround::12-15           71      0.63%     99.86% # Writes before turning the bus around for reads
system.mem_ctrls2.wrPerTurnAround::16-19           16      0.14%    100.00% # Writes before turning the bus around for reads
system.mem_ctrls2.wrPerTurnAround::total        11359                       # Writes before turning the bus around for reads
system.mem_ctrls2.totQLat                  1781680383                       # Total ticks spent queuing
system.mem_ctrls2.totMemAccLat             3211555383                       # Total ticks spent from burst creation until serviced by the DRAM
system.mem_ctrls2.totBusLat                 381300000                       # Total ticks spent in databus transfers
system.mem_ctrls2.avgQLat                    23363.24                       # Average queueing delay per DRAM burst
system.mem_ctrls2.avgBusLat                   5000.00                       # Average bus latency per DRAM burst
system.mem_ctrls2.avgMemAccLat               42113.24                       # Average memory access latency per DRAM burst
system.mem_ctrls2.avgRdBW                      128.37                       # Average DRAM read bandwidth in MiByte/s
system.mem_ctrls2.avgWrBW                      102.21                       # Average achieved write bandwidth in MiByte/s
system.mem_ctrls2.avgRdBWSys                   128.40                       # Average system read bandwidth in MiByte/s
system.mem_ctrls2.avgWrBWSys                   102.21                       # Average system write bandwidth in MiByte/s
system.mem_ctrls2.peakBW                     12800.00                       # Theoretical peak bandwidth in MiByte/s
system.mem_ctrls2.busUtil                        1.80                       # Data bus utilization in percentage
system.mem_ctrls2.busUtilRead                    1.00                       # Data bus utilization in percentage for reads
system.mem_ctrls2.busUtilWrite                   0.80                       # Data bus utilization in percentage for writes
system.mem_ctrls2.avgRdQLen                      1.07                       # Average read queue length when enqueuing
system.mem_ctrls2.avgWrQLen                      2.93                       # Average write queue length when enqueuing
system.mem_ctrls2.readRowHits                   52668                       # Number of row buffer hits during reads
system.mem_ctrls2.writeRowHits                  33376                       # Number of row buffer hits during writes
system.mem_ctrls2.readRowHitRate                69.06                       # Row buffer hit rate for reads
system.mem_ctrls2.writeRowHitRate               54.97                       # Row buffer hit rate for writes
system.mem_ctrls2.avgGap                    277518.25                       # Average gap between requests
system.mem_ctrls2.pageHitRate                   62.82                       # Row buffer hit rate, read and write combined
system.mem_ctrls2.memoryStateTime::IDLE    8911544500                       # Time in different power states
system.mem_ctrls2.memoryStateTime::REF     1269320000                       # Time in different power states
system.mem_ctrls2.memoryStateTime::PRE_PDN            0                       # Time in different power states
system.mem_ctrls2.memoryStateTime::ACT    27832247000                       # Time in different power states
system.mem_ctrls2.memoryStateTime::ACT_PDN            0                       # Time in different power states
system.mem_ctrls2.actEnergy::0              193309200                       # Energy for activate commands per rank (pJ)
system.mem_ctrls2.actEnergy::1              191653560                       # Energy for activate commands per rank (pJ)
system.mem_ctrls2.preEnergy::0              105476250                       # Energy for precharge commands per rank (pJ)
system.mem_ctrls2.preEnergy::1              104572875                       # Energy for precharge commands per rank (pJ)
system.mem_ctrls2.readEnergy::0             300534000                       # Energy for read commands per rank (pJ)
system.mem_ctrls2.readEnergy::1             294138000                       # Energy for read commands per rank (pJ)
system.mem_ctrls2.writeEnergy::0            195948720                       # Energy for write commands per rank (pJ)
system.mem_ctrls2.writeEnergy::1            197452080                       # Energy for write commands per rank (pJ)
system.mem_ctrls2.refreshEnergy::0         2482789920                       # Energy for refresh commands per rank (pJ)
system.mem_ctrls2.refreshEnergy::1         2482789920                       # Energy for refresh commands per rank (pJ)
system.mem_ctrls2.actBackEnergy::0        15019672995                       # Energy for active background per rank (pJ)
system.mem_ctrls2.actBackEnergy::1        14543779140                       # Energy for active background per rank (pJ)
system.mem_ctrls2.preBackEnergy::0         9632487750                       # Energy for precharge background per rank (pJ)
system.mem_ctrls2.preBackEnergy::1        10049938500                       # Energy for precharge background per rank (pJ)
system.mem_ctrls2.totalEnergy::0          27930218835                       # Total energy per rank (pJ)
system.mem_ctrls2.totalEnergy::1          27864324075                       # Total energy per rank (pJ)
system.mem_ctrls2.averagePower::0          734.759566                       # Core power per rank (mW)
system.mem_ctrls2.averagePower::1          733.026074                       # Core power per rank (mW)
system.mem_ctrls3.bytes_read::ruby.dir_cntrl3      4858752                       # Number of bytes read from this memory
system.mem_ctrls3.bytes_read::total           4858752                       # Number of bytes read from this memory
system.mem_ctrls3.bytes_written::ruby.dir_cntrl3      3880064                       # Number of bytes written to this memory
system.mem_ctrls3.bytes_written::total        3880064                       # Number of bytes written to this memory
system.mem_ctrls3.num_reads::ruby.dir_cntrl3        75918                       # Number of read requests responded to by this memory
system.mem_ctrls3.num_reads::total              75918                       # Number of read requests responded to by this memory
system.mem_ctrls3.num_writes::ruby.dir_cntrl3        60626                       # Number of write requests responded to by this memory
system.mem_ctrls3.num_writes::total             60626                       # Number of write requests responded to by this memory
system.mem_ctrls3.bw_read::ruby.dir_cntrl3    127798518                       # Total read bandwidth from this memory (bytes/s)
system.mem_ctrls3.bw_read::total            127798518                       # Total read bandwidth from this memory (bytes/s)
system.mem_ctrls3.bw_write::ruby.dir_cntrl3    102056337                       # Write bandwidth from this memory (bytes/s)
system.mem_ctrls3.bw_write::total           102056337                       # Write bandwidth from this memory (bytes/s)
system.mem_ctrls3.bw_total::ruby.dir_cntrl3    229854855                       # Total bandwidth to/from this memory (bytes/s)
system.mem_ctrls3.bw_total::total           229854855                       # Total bandwidth to/from this memory (bytes/s)
system.mem_ctrls3.readReqs                      75920                       # Number of read requests accepted
system.mem_ctrls3.writeReqs                     60626                       # Number of write requests accepted
system.mem_ctrls3.readBursts                    75920                       # Number of DRAM read bursts, including those serviced by the write queue
system.mem_ctrls3.writeBursts                   60626                       # Number of DRAM write bursts, including those merged in the write queue
system.mem_ctrls3.bytesReadDRAM               4858304                       # Total number of bytes read from DRAM
system.mem_ctrls3.bytesReadWrQ                    576                       # Total number of bytes read from write queue
system.mem_ctrls3.bytesWritten                3880000                       # Total number of bytes written to DRAM
system.mem_ctrls3.bytesReadSys                4858880                       # Total read bytes from the system interface side
system.mem_ctrls3.bytesWrittenSys             3880064                       # Total written bytes from the system interface side
system.mem_ctrls3.servicedByWrQ                     9                       # Number of DRAM read bursts serviced by the write queue
system.mem_ctrls3.mergedWrBursts                    0                       # Number of DRAM write bursts merged with an existing one
system.mem_ctrls3.neitherReadNorWriteReqs            0                       # Number of requests that are neither read nor write
system.mem_ctrls3.perBankRdBursts::0             4298                       # Per bank write bursts
system.mem_ctrls3.perBankRdBursts::1             4719                       # Per bank write bursts
system.mem_ctrls3.perBankRdBursts::2             4418                       # Per bank write bursts
system.mem_ctrls3.perBankRdBursts::3             4860                       # Per bank write bursts
system.mem_ctrls3.perBankRdBursts::4             4737                       # Per bank write bursts
system.mem_ctrls3.perBankRdBursts::5             5240                       # Per bank write bursts
system.mem_ctrls3.perBankRdBursts::6             4866                       # Per bank write bursts
system.mem_ctrls3.perBankRdBursts::7             5150                       # Per bank write bursts
system.mem_ctrls3.perBankRdBursts::8             4922                       # Per bank write bursts
system.mem_ctrls3.perBankRdBursts::9             5080                       # Per bank write bursts
system.mem_ctrls3.perBankRdBursts::10            4520                       # Per bank write bursts
system.mem_ctrls3.perBankRdBursts::11            4731                       # Per bank write bursts
system.mem_ctrls3.perBankRdBursts::12            4482                       # Per bank write bursts
system.mem_ctrls3.perBankRdBursts::13            4517                       # Per bank write bursts
system.mem_ctrls3.perBankRdBursts::14            4643                       # Per bank write bursts
system.mem_ctrls3.perBankRdBursts::15            4728                       # Per bank write bursts
system.mem_ctrls3.perBankWrBursts::0             3555                       # Per bank write bursts
system.mem_ctrls3.perBankWrBursts::1             3505                       # Per bank write bursts
system.mem_ctrls3.perBankWrBursts::2             3566                       # Per bank write bursts
system.mem_ctrls3.perBankWrBursts::3             3718                       # Per bank write bursts
system.mem_ctrls3.perBankWrBursts::4             3786                       # Per bank write bursts
system.mem_ctrls3.perBankWrBursts::5             4100                       # Per bank write bursts
system.mem_ctrls3.perBankWrBursts::6             3842                       # Per bank write bursts
system.mem_ctrls3.perBankWrBursts::7             4097                       # Per bank write bursts
system.mem_ctrls3.perBankWrBursts::8             3971                       # Per bank write bursts
system.mem_ctrls3.perBankWrBursts::9             4039                       # Per bank write bursts
system.mem_ctrls3.perBankWrBursts::10            3605                       # Per bank write bursts
system.mem_ctrls3.perBankWrBursts::11            3581                       # Per bank write bursts
system.mem_ctrls3.perBankWrBursts::12            3717                       # Per bank write bursts
system.mem_ctrls3.perBankWrBursts::13            3823                       # Per bank write bursts
system.mem_ctrls3.perBankWrBursts::14            3893                       # Per bank write bursts
system.mem_ctrls3.perBankWrBursts::15            3827                       # Per bank write bursts
system.mem_ctrls3.numRdRetry                        6                       # Number of times read queue was full causing retry
system.mem_ctrls3.numWrRetry                      150                       # Number of times write queue was full causing retry
system.mem_ctrls3.totGap                  38018102000                       # Total gap between requests
system.mem_ctrls3.readPktSize::0                    0                       # Read request sizes (log2)
system.mem_ctrls3.readPktSize::1                    0                       # Read request sizes (log2)
system.mem_ctrls3.readPktSize::2                    0                       # Read request sizes (log2)
system.mem_ctrls3.readPktSize::3                    0                       # Read request sizes (log2)
system.mem_ctrls3.readPktSize::4                    0                       # Read request sizes (log2)
system.mem_ctrls3.readPktSize::5                    0                       # Read request sizes (log2)
system.mem_ctrls3.readPktSize::6                75920                       # Read request sizes (log2)
system.mem_ctrls3.writePktSize::0                   0                       # Write request sizes (log2)
system.mem_ctrls3.writePktSize::1                   0                       # Write request sizes (log2)
system.mem_ctrls3.writePktSize::2                   0                       # Write request sizes (log2)
system.mem_ctrls3.writePktSize::3                   0                       # Write request sizes (log2)
system.mem_ctrls3.writePktSize::4                   0                       # Write request sizes (log2)
system.mem_ctrls3.writePktSize::5                   0                       # Write request sizes (log2)
system.mem_ctrls3.writePktSize::6               60626                       # Write request sizes (log2)
system.mem_ctrls3.rdQLenPdf::0                  59314                       # What read queue length does an incoming req see
system.mem_ctrls3.rdQLenPdf::1                   9969                       # What read queue length does an incoming req see
system.mem_ctrls3.rdQLenPdf::2                   3187                       # What read queue length does an incoming req see
system.mem_ctrls3.rdQLenPdf::3                   1346                       # What read queue length does an incoming req see
system.mem_ctrls3.rdQLenPdf::4                    716                       # What read queue length does an incoming req see
system.mem_ctrls3.rdQLenPdf::5                    432                       # What read queue length does an incoming req see
system.mem_ctrls3.rdQLenPdf::6                    264                       # What read queue length does an incoming req see
system.mem_ctrls3.rdQLenPdf::7                    154                       # What read queue length does an incoming req see
system.mem_ctrls3.rdQLenPdf::8                    100                       # What read queue length does an incoming req see
system.mem_ctrls3.rdQLenPdf::9                     72                       # What read queue length does an incoming req see
system.mem_ctrls3.rdQLenPdf::10                    49                       # What read queue length does an incoming req see
system.mem_ctrls3.rdQLenPdf::11                    46                       # What read queue length does an incoming req see
system.mem_ctrls3.rdQLenPdf::12                    39                       # What read queue length does an incoming req see
system.mem_ctrls3.rdQLenPdf::13                    24                       # What read queue length does an incoming req see
system.mem_ctrls3.rdQLenPdf::14                    24                       # What read queue length does an incoming req see
system.mem_ctrls3.rdQLenPdf::15                    27                       # What read queue length does an incoming req see
system.mem_ctrls3.rdQLenPdf::16                    21                       # What read queue length does an incoming req see
system.mem_ctrls3.rdQLenPdf::17                    17                       # What read queue length does an incoming req see
system.mem_ctrls3.rdQLenPdf::18                    13                       # What read queue length does an incoming req see
system.mem_ctrls3.rdQLenPdf::19                    14                       # What read queue length does an incoming req see
system.mem_ctrls3.rdQLenPdf::20                    17                       # What read queue length does an incoming req see
system.mem_ctrls3.rdQLenPdf::21                    11                       # What read queue length does an incoming req see
system.mem_ctrls3.rdQLenPdf::22                    11                       # What read queue length does an incoming req see
system.mem_ctrls3.rdQLenPdf::23                    11                       # What read queue length does an incoming req see
system.mem_ctrls3.rdQLenPdf::24                    11                       # What read queue length does an incoming req see
[...]
system.ruby.L2Cache_Controller.MT_IIB.L1_PUTX::total            5                      
system.ruby.L2Cache_Controller.MT_IIB.WB_Data |        6901      3.25%      3.25% |        6680      3.15%      6.40% |        6714      3.16%      9.56% |        6607      3.11%     12.67% |        6795      3.20%     15.87% |        6565      3.09%     18.97% |        6564      3.09%     22.06% |        6539      3.08%     25.14% |        6641      3.13%     28.27% |        6562      3.09%     31.36% |        6634      3.13%     34.49% |        6599      3.11%     37.59% |        6742      3.18%     40.77% |        6566      3.09%     43.86% |        6676      3.15%     47.01% |        6693      3.15%     50.16% |        6795      3.20%     53.36% |        6542      3.08%     56.44% |        6563      3.09%     59.54% |        6525      3.07%     62.61% |        6675      3.14%     65.76% |        6596      3.11%     68.86% |        6608      3.11%     71.98% |        6649      3.13%     75.11% |        6699      3.16%     78.26% |        6558      3.09%     81.35% |        6515      3.07%     84.42% |        6516      3.07%     87.49% |        6833      3.22%     90.71% |        6535      3.08%     93.79% |        6682      3.15%     96.94% |        6500      3.06%    100.00%
system.ruby.L2Cache_Controller.MT_IIB.WB_Data::total       212269                      
system.ruby.L2Cache_Controller.MT_IIB.WB_Data_clean |         664      3.22%      3.22% |         647      3.14%      6.36% |         651      3.16%      9.52% |         655      3.18%     12.69% |         666      3.23%     15.92% |         655      3.18%     19.10% |         636      3.08%     22.19% |         637      3.09%     25.28% |         637      3.09%     28.37% |         638      3.09%     31.46% |         651      3.16%     34.62% |         637      3.09%     37.71% |         645      3.13%     40.84% |         636      3.08%     43.92% |         659      3.20%     47.12% |         645      3.13%     50.25% |         633      3.07%     53.32% |         628      3.05%     56.36% |         635      3.08%     59.44% |         626      3.04%     62.48% |         642      3.11%     65.59% |         626      3.04%     68.63% |         648      3.14%     71.77% |         638      3.09%     74.87% |         627      3.04%     77.91% |         640      3.10%     81.01% |         629      3.05%     84.07% |         646      3.13%     87.20% |         668      3.24%     90.44% |         653      3.17%     93.61% |         665      3.23%     96.83% |         653      3.17%    100.00%
system.ruby.L2Cache_Controller.MT_IIB.WB_Data_clean::total        20616                      
system.ruby.L2Cache_Controller.MT_IIB.Unblock |          41      0.66%      0.66% |          89      1.42%      2.08% |         138      2.21%      4.29% |         190      3.04%      7.32% |          90      1.44%      8.76% |         235      3.76%     12.52% |         253      4.05%     16.57% |         273      4.37%     20.93% |         294      4.70%     25.63% |         214      3.42%     29.05% |         174      2.78%     31.84% |         207      3.31%     35.15% |         172      2.75%     37.90% |         216      3.45%     41.35% |         138      2.21%     43.56% |         122      1.95%     45.51% |         199      3.18%     48.69% |         255      4.08%     52.77% |         217      3.47%     56.24% |         271      4.33%     60.57% |         263      4.21%     64.77% |         191      3.05%     67.83% |         156      2.49%     70.32% |         154      2.46%     72.79% |         249      3.98%     76.77% |         174      2.78%     79.55% |         250      4.00%     83.55% |         206      3.29%     86.84% |         135      2.16%     89.00% |         243      3.89%     92.88% |         155      2.48%     95.36% |         290      4.64%    100.00%
system.ruby.L2Cache_Controller.MT_IIB.Unblock::total         6254                      
system.ruby.L2Cache_Controller.MT_IB.L1_GETS |           0      0.00%      0.00% |           0      0.00%      0.00% |           0      0.00%      0.00% |           0      0.00%      0.00% |           0      0.00%      0.00% |           0      0.00%      0.00% |           0      0.00%      0.00% |           0      0.00%      0.00% |           1     20.00%     20.00% |           0      0.00%     20.00% |           0      0.00%     20.00% |           0      0.00%     20.00% |           0      0.00%     20.00% |           0      0.00%     20.00% |           0      0.00%     20.00% |           1     20.00%     40.00% |           0      0.00%     40.00% |           2     40.00%     80.00% |           0      0.00%     80.00% |           1     20.00%    100.00% |           0      0.00%    100.00% |           0      0.00%    100.00% |           0      0.00%    100.00% |           0      0.00%    100.00% |           0      0.00%    100.00% |           0      0.00%    100.00% |           0      0.00%    100.00% |           0      0.00%    100.00% |           0      0.00%    100.00% |           0      0.00%    100.00% |           0      0.00%    100.00% |           0      0.00%    100.00%
system.ruby.L2Cache_Controller.MT_IB.L1_GETS::total            5                      
system.ruby.L2Cache_Controller.MT_IB.L1_UPGRADE |           0      0.00%      0.00% |           0      0.00%      0.00% |           0      0.00%      0.00% |           1      3.70%      3.70% |           1      3.70%      7.41% |           2      7.41%     14.81% |           1      3.70%     18.52% |           0      0.00%     18.52% |           0      0.00%     18.52% |           1      3.70%     22.22% |           0      0.00%     22.22% |           0      0.00%     22.22% |           0      0.00%     22.22% |           0      0.00%     22.22% |           0      0.00%     22.22% |           0      0.00%     22.22% |           1      3.70%     25.93% |           3     11.11%     37.04% |           0      0.00%     37.04% |           3     11.11%     48.15% |           0      0.00%     48.15% |           1      3.70%     51.85% |           0      0.00%     51.85% |           0      0.00%     51.85% |           2      7.41%     59.26% |           1      3.70%     62.96% |           3     11.11%     74.07% |           3     11.11%     85.19% |           1      3.70%     88.89% |           1      3.70%     92.59% |           0      0.00%     92.59% |           2      7.41%    100.00%
system.ruby.L2Cache_Controller.MT_IB.L1_UPGRADE::total           27                      
system.ruby.L2Cache_Controller.MT_IB.WB_Data |          40      0.68%      0.68% |          85      1.45%      2.14% |         129      2.21%      4.35% |         178      3.05%      7.39% |          87      1.49%      8.88% |         222      3.80%     12.68% |         234      4.00%     16.69% |         257      4.40%     21.09% |         274      4.69%     25.77% |         201      3.44%     29.21% |         160      2.74%     31.95% |         191      3.27%     35.22% |         162      2.77%     37.99% |         198      3.39%     41.38% |         130      2.22%     43.61% |         116      1.99%     45.59% |         181      3.10%     48.69% |         237      4.06%     52.75% |         204      3.49%     56.24% |         243      4.16%     60.40% |         244      4.18%     64.57% |         178      3.05%     67.62% |         147      2.52%     70.14% |         146      2.50%     72.63% |         234      4.00%     76.64% |         161      2.76%     79.39% |         232      3.97%     83.36% |         198      3.39%     86.75% |         124      2.12%     88.88% |         221      3.78%     92.66% |         150      2.57%     95.23% |         279      4.77%    100.00%
system.ruby.L2Cache_Controller.MT_IB.WB_Data::total         5843                      
system.ruby.L2Cache_Controller.MT_IB.WB_Data_clean |           1      0.24%      0.24% |           4      0.97%      1.22% |           9      2.19%      3.41% |          12      2.92%      6.33% |           3      0.73%      7.06% |          13      3.16%     10.22% |          19      4.62%     14.84% |          16      3.89%     18.73% |          20      4.87%     23.60% |          13      3.16%     26.76% |          14      3.41%     30.17% |          16      3.89%     34.06% |          10      2.43%     36.50% |          18      4.38%     40.88% |           8      1.95%     42.82% |           6      1.46%     44.28% |          18      4.38%     48.66% |          18      4.38%     53.04% |          13      3.16%     56.20% |          28      6.81%     63.02% |          19      4.62%     67.64% |          13      3.16%     70.80% |           9      2.19%     72.99% |           8      1.95%     74.94% |          15      3.65%     78.59% |          13      3.16%     81.75% |          18      4.38%     86.13% |           8      1.95%     88.08% |          11      2.68%     90.75% |          22      5.35%     96.11% |           5      1.22%     97.32% |          11      2.68%    100.00%
system.ruby.L2Cache_Controller.MT_IB.WB_Data_clean::total          411                      
system.ruby.L2Cache_Controller.MT_SB.L1_GETS |          40      3.28%      3.28% |          49      4.01%      7.29% |          53      4.34%     11.63% |          47      3.85%     15.48% |          35      2.87%     18.35% |          34      2.78%     21.13% |          48      3.93%     25.06% |          36      2.95%     28.01% |          35      2.87%     30.88% |          39      3.19%     34.07% |          33      2.70%     36.77% |          45      3.69%     40.46% |          32      2.62%     43.08% |          29      2.38%     45.45% |          38      3.11%     48.57% |          39      3.19%     51.76% |          29      2.38%     54.14% |          34      2.78%     56.92% |          37      3.03%     59.95% |          29      2.38%     62.33% |          40      3.28%     65.60% |          42      3.44%     69.04% |          41      3.36%     72.40% |          31      2.54%     74.94% |          32      2.62%     77.56% |          42      3.44%     81.00% |          42      3.44%     84.44% |          32      2.62%     87.06% |          44      3.60%     90.66% |          37      3.03%     93.69% |          42      3.44%     97.13% |          35      2.87%    100.00%
system.ruby.L2Cache_Controller.MT_SB.L1_GETS::total         1221                      
system.ruby.L2Cache_Controller.MT_SB.L1_GETX |          15      2.74%      2.74% |          11      2.01%      4.75% |          15      2.74%      7.50% |          11      2.01%      9.51% |          12      2.19%     11.70% |          22      4.02%     15.72% |          15      2.74%     18.46% |          26      4.75%     23.22% |          22      4.02%     27.24% |          18      3.29%     30.53% |          14      2.56%     33.09% |          17      3.11%     36.20% |          13      2.38%     38.57% |          17      3.11%     41.68% |          19      3.47%     45.16% |          23      4.20%     49.36% |          14      2.56%     51.92% |          20      3.66%     55.58% |          21      3.84%     59.41% |          16      2.93%     62.34% |          15      2.74%     65.08% |          13      2.38%     67.46% |          18      3.29%     70.75% |          15      2.74%     73.49% |          18      3.29%     76.78% |          17      3.11%     79.89% |          17      3.11%     83.00% |          31      5.67%     88.67% |          12      2.19%     90.86% |          17      3.11%     93.97% |          14      2.56%     96.53% |          19      3.47%    100.00%
system.ruby.L2Cache_Controller.MT_SB.L1_GETX::total          547                      
system.ruby.L2Cache_Controller.MT_SB.L1_UPGRADE |          11      3.53%      3.53% |          10      3.21%      6.73% |           4      1.28%      8.01% |           7      2.24%     10.26% |           8      2.56%     12.82% |          12      3.85%     16.67% |          10      3.21%     19.87% |           8      2.56%     22.44% |           6      1.92%     24.36% |          13      4.17%     28.53% |          12      3.85%     32.37% |          14      4.49%     36.86% |           7      2.24%     39.10% |          10      3.21%     42.31% |          10      3.21%     45.51% |           7      2.24%     47.76% |           9      2.88%     50.64% |           9      2.88%     53.53% |          11      3.53%     57.05% |          11      3.53%     60.58% |           4      1.28%     61.86% |          13      4.17%     66.03% |           7      2.24%     68.27% |          12      3.85%     72.12% |           8      2.56%     74.68% |          11      3.53%     78.21% |           9      2.88%     81.09% |           9      2.88%     83.97% |          14      4.49%     88.46% |          13      4.17%     92.63% |           9      2.88%     95.51% |          14      4.49%    100.00%
system.ruby.L2Cache_Controller.MT_SB.L1_UPGRADE::total          312                      
system.ruby.L2Cache_Controller.MT_SB.Unblock |        7565      3.25%      3.25% |        7327      3.15%      6.39% |        7365      3.16%      9.56% |        7262      3.12%     12.68% |        7461      3.20%     15.88% |        7220      3.10%     18.98% |        7200      3.09%     22.07% |        7176      3.08%     25.15% |        7278      3.13%     28.28% |        7200      3.09%     31.37% |        7285      3.13%     34.50% |        7236      3.11%     37.60% |        7387      3.17%     40.78% |        7202      3.09%     43.87% |        7335      3.15%     47.02% |        7338      3.15%     50.17% |        7428      3.19%     53.36% |        7170      3.08%     56.44% |        7198      3.09%     59.53% |        7151      3.07%     62.60% |        7317      3.14%     65.74% |        7222      3.10%     68.84% |        7256      3.12%     71.96% |        7287      3.13%     75.09% |        7326      3.15%     78.23% |        7198      3.09%     81.32% |        7144      3.07%     84.39% |        7162      3.08%     87.47% |        7501      3.22%     90.69% |        7188      3.09%     93.77% |        7347      3.15%     96.93% |        7153      3.07%    100.00%
system.ruby.L2Cache_Controller.MT_SB.Unblock::total       232885                      
system.ruby.SimicsNetworkPortInterface_Controller.MessageSend |      308318     17.94%     17.94% |      859423     50.00%     67.94% |       69228      4.03%     71.97% |       73878      4.30%     76.26% |       68695      4.00%     80.26% |       73478      4.27%     84.53% |       68949      4.01%     88.55% |       74797      4.35%     92.90% |       58365      3.40%     96.29% |       63715      3.71%    100.00% |           0      0.00%    100.00% |           0      0.00%    100.00% |           0      0.00%    100.00% |           0      0.00%    100.00% |           0      0.00%    100.00% |           0      0.00%    100.00% |           0      0.00%    100.00% |           0      0.00%    100.00% |           0      0.00%    100.00% |           0      0.00%    100.00% |           0      0.00%    100.00% |           0      0.00%    100.00% |           0      0.00%    100.00% |           0      0.00%    100.00% |           0      0.00%    100.00% |           0      0.00%    100.00% |           0      0.00%    100.00% |           0      0.00%    100.00% |           0      0.00%    100.00% |           0      0.00%    100.00% |           0      0.00%    100.00% |           0      0.00%    100.00%
system.ruby.SimicsNetworkPortInterface_Controller.MessageSend::total      1718846                      
system.ruby.SimicsNetworkPortInterface_Controller.MessageRecv |      308318     17.94%     17.94% |      859423     50.00%     67.94% |       69228      4.03%     71.97% |       73878      4.30%     76.26% |       68695      4.00%     80.26% |       73478      4.27%     84.53% |       68949      4.01%     88.55% |       74797      4.35%     92.90% |       58365      3.40%     96.29% |       63715      3.71%    100.00% |           0      0.00%    100.00% |           0      0.00%    100.00% |           0      0.00%    100.00% |           0      0.00%    100.00% |           0      0.00%    100.00% |           0      0.00%    100.00% |           0      0.00%    100.00% |           0      0.00%    100.00% |           0      0.00%    100.00% |           0      0.00%    100.00% |           0      0.00%    100.00% |           0      0.00%    100.00% |           0      0.00%    100.00% |           0      0.00%    100.00% |           0      0.00%    100.00% |           0      0.00%    100.00% |           0      0.00%    100.00% |           0      0.00%    100.00% |           0      0.00%    100.00% |           0      0.00%    100.00% |           0      0.00%    100.00% |           0      0.00%    100.00%
system.ruby.SimicsNetworkPortInterface_Controller.MessageRecv::total      1718846                      
system.ruby.SimicsNetworkPortInterface_Controller.A.MessageSend |      308318     17.94%     17.94% |      859423     50.00%     67.94% |       69228      4.03%     71.97% |       73878      4.30%     76.26% |       68695      4.00%     80.26% |       73478      4.27%     84.53% |       68949      4.01%     88.55% |       74797      4.35%     92.90% |       58365      3.40%     96.29% |       63715      3.71%    100.00% |           0      0.00%    100.00% |           0      0.00%    100.00% |           0      0.00%    100.00% |           0      0.00%    100.00% |           0      0.00%    100.00% |           0      0.00%    100.00% |           0      0.00%    100.00% |           0      0.00%    100.00% |           0      0.00%    100.00% |           0      0.00%    100.00% |           0      0.00%    100.00% |           0      0.00%    100.00% |           0      0.00%    100.00% |           0      0.00%    100.00% |           0      0.00%    100.00% |           0      0.00%    100.00% |           0      0.00%    100.00% |           0      0.00%    100.00% |           0      0.00%    100.00% |           0      0.00%    100.00% |           0      0.00%    100.00% |           0      0.00%    100.00%
system.ruby.SimicsNetworkPortInterface_Controller.A.MessageSend::total      1718846                      
system.ruby.SimicsNetworkPortInterface_Controller.A.MessageRecv |      308318     17.94%     17.94% |      859423     50.00%     67.94% |       69228      4.03%     71.97% |       73878      4.30%     76.26% |       68695      4.00%     80.26% |       73478      4.27%     84.53% |       68949      4.01%     88.55% |       74797      4.35%     92.90% |       58365      3.40%     96.29% |       63715      3.71%    100.00% |           0      0.00%    100.00% |           0      0.00%    100.00% |           0      0.00%    100.00% |           0      0.00%    100.00% |           0      0.00%    100.00% |           0      0.00%    100.00% |           0      0.00%    100.00% |           0      0.00%    100.00% |           0      0.00%    100.00% |           0      0.00%    100.00% |           0      0.00%    100.00% |           0      0.00%    100.00% |           0      0.00%    100.00% |           0      0.00%    100.00% |           0      0.00%    100.00% |           0      0.00%    100.00% |           0      0.00%    100.00% |           0      0.00%    100.00% |           0      0.00%    100.00% |           0      0.00%    100.00% |           0      0.00%    100.00% |           0      0.00%    100.00%
system.ruby.SimicsNetworkPortInterface_Controller.A.MessageRecv::total      1718846                      
system.switch_cpus.kern.inst.arm                    0                       # number of arm instructions executed
system.switch_cpus.kern.inst.quiesce                0                       # number of quiesce instructions executed

---------- End Simulation Statistics   ----------
