
---------- Begin Simulation Statistics ----------
sim_seconds                                  0.153803                       # Number of seconds simulated
sim_ticks                                153803442000                       # Number of ticks simulated
final_tick                               5329971520500                       # Number of ticks from beginning of simulation (restored from checkpoints and never reset)
sim_freq                                 1000000000000                       # Frequency of simulated ticks
host_inst_rate                                  85509                       # Simulator instruction rate (inst/s)
host_op_rate                                   162830                       # Simulator op (including micro ops) rate (op/s)
host_tick_rate                              203783585                       # Simulator tick rate (ticks/s)
host_mem_usage                                3998172                       # Number of bytes of host memory used
host_seconds                                   754.74                       # Real time elapsed on the host
sim_insts                                    64537132                       # Number of instructions simulated
sim_ops                                     122894523                       # Number of ops (including micro ops) simulated
system.voltage_domain.voltage                       1                       # Voltage in Volts
system.clk_domain.clock                           500                       # Clock period in ticks
system.mem_ctrls0.bytes_read::ruby.dir_cntrl0     25268736                       # Number of bytes read from this memory
system.mem_ctrls0.bytes_read::total          25268736                       # Number of bytes read from this memory
system.mem_ctrls0.bytes_written::ruby.dir_cntrl0     21421376                       # Number of bytes written to this memory
system.mem_ctrls0.bytes_written::total       21421376                       # Number of bytes written to this memory
system.mem_ctrls0.num_reads::ruby.dir_cntrl0       394824                       # Number of read requests responded to by this memory
system.mem_ctrls0.num_reads::total             394824                       # Number of read requests responded to by this memory
system.mem_ctrls0.num_writes::ruby.dir_cntrl0       334709                       # Number of write requests responded to by this memory
system.mem_ctrls0.num_writes::total            334709                       # Number of write requests responded to by this memory
system.mem_ctrls0.bw_read::ruby.dir_cntrl0    164292396                       # Total read bandwidth from this memory (bytes/s)
system.mem_ctrls0.bw_read::total            164292396                       # Total read bandwidth from this memory (bytes/s)
system.mem_ctrls0.bw_write::ruby.dir_cntrl0    139277611                       # Write bandwidth from this memory (bytes/s)
system.mem_ctrls0.bw_write::total           139277611                       # Write bandwidth from this memory (bytes/s)
system.mem_ctrls0.bw_total::ruby.dir_cntrl0    303570007                       # Total bandwidth to/from this memory (bytes/s)
system.mem_ctrls0.bw_total::total           303570007                       # Total bandwidth to/from this memory (bytes/s)
system.mem_ctrls0.readReqs                     394825                       # Number of read requests accepted
system.mem_ctrls0.writeReqs                    334709                       # Number of write requests accepted
system.mem_ctrls0.readBursts                   394825                       # Number of DRAM read bursts, including those serviced by the write queue
system.mem_ctrls0.writeBursts                  334709                       # Number of DRAM write bursts, including those merged in the write queue
system.mem_ctrls0.bytesReadDRAM              25267776                       # Total number of bytes read from DRAM
system.mem_ctrls0.bytesReadWrQ                   1024                       # Total number of bytes read from write queue
system.mem_ctrls0.bytesWritten               21421184                       # Total number of bytes written to DRAM
system.mem_ctrls0.bytesReadSys               25268800                       # Total read bytes from the system interface side
system.mem_ctrls0.bytesWrittenSys            21421376                       # Total written bytes from the system interface side
system.mem_ctrls0.servicedByWrQ                    16                       # Number of DRAM read bursts serviced by the write queue
system.mem_ctrls0.mergedWrBursts                    0                       # Number of DRAM write bursts merged with an existing one
system.mem_ctrls0.neitherReadNorWriteReqs            0                       # Number of requests that are neither read nor write
system.mem_ctrls0.perBankRdBursts::0            24364                       # Per bank write bursts
system.mem_ctrls0.perBankRdBursts::1            25075                       # Per bank write bursts
system.mem_ctrls0.perBankRdBursts::2            24641                       # Per bank write bursts
system.mem_ctrls0.perBankRdBursts::3            24952                       # Per bank write bursts
system.mem_ctrls0.perBankRdBursts::4            24585                       # Per bank write bursts
system.mem_ctrls0.perBankRdBursts::5            24925                       # Per bank write bursts
system.mem_ctrls0.perBankRdBursts::6            24971                       # Per bank write bursts
system.mem_ctrls0.perBankRdBursts::7            24750                       # Per bank write bursts
system.mem_ctrls0.perBankRdBursts::8            24656                       # Per bank write bursts
system.mem_ctrls0.perBankRdBursts::9            24785                       # Per bank write bursts
system.mem_ctrls0.perBankRdBursts::10           24575                       # Per bank write bursts
system.mem_ctrls0.perBankRdBursts::11           25073                       # Per bank write bursts
system.mem_ctrls0.perBankRdBursts::12           24327                       # Per bank write bursts
system.mem_ctrls0.perBankRdBursts::13           24246                       # Per bank write bursts
system.mem_ctrls0.perBankRdBursts::14           24410                       # Per bank write bursts
system.mem_ctrls0.perBankRdBursts::15           24474                       # Per bank write bursts
system.mem_ctrls0.perBankWrBursts::0            20928                       # Per bank write bursts
system.mem_ctrls0.perBankWrBursts::1            20830                       # Per bank write bursts
system.mem_ctrls0.perBankWrBursts::2            20836                       # Per bank write bursts
system.mem_ctrls0.perBankWrBursts::3            21158                       # Per bank write bursts
system.mem_ctrls0.perBankWrBursts::4            20766                       # Per bank write bursts
system.mem_ctrls0.perBankWrBursts::5            21032                       # Per bank write bursts
system.mem_ctrls0.perBankWrBursts::6            21068                       # Per bank write bursts
system.mem_ctrls0.perBankWrBursts::7            20988                       # Per bank write bursts
system.mem_ctrls0.perBankWrBursts::8            21139                       # Per bank write bursts
system.mem_ctrls0.perBankWrBursts::9            20925                       # Per bank write bursts
system.mem_ctrls0.perBankWrBursts::10           20847                       # Per bank write bursts
system.mem_ctrls0.perBankWrBursts::11           20855                       # Per bank write bursts
system.mem_ctrls0.perBankWrBursts::12           20635                       # Per bank write bursts
system.mem_ctrls0.perBankWrBursts::13           20937                       # Per bank write bursts
system.mem_ctrls0.perBankWrBursts::14           20926                       # Per bank write bursts
system.mem_ctrls0.perBankWrBursts::15           20836                       # Per bank write bursts
system.mem_ctrls0.numRdRetry                   135467                       # Number of times read queue was full causing retry
system.mem_ctrls0.numWrRetry                    16366                       # Number of times write queue was full causing retry
system.mem_ctrls0.totGap                 153803178500                       # Total gap between requests
system.mem_ctrls0.readPktSize::0                    0                       # Read request sizes (log2)
system.mem_ctrls0.readPktSize::1                    0                       # Read request sizes (log2)
system.mem_ctrls0.readPktSize::2                    0                       # Read request sizes (log2)
system.mem_ctrls0.readPktSize::3                    0                       # Read request sizes (log2)
system.mem_ctrls0.readPktSize::4                    0                       # Read request sizes (log2)
system.mem_ctrls0.readPktSize::5                    0                       # Read request sizes (log2)
system.mem_ctrls0.readPktSize::6               394825                       # Read request sizes (log2)
system.mem_ctrls0.writePktSize::0                   0                       # Write request sizes (log2)
system.mem_ctrls0.writePktSize::1                   0                       # Write request sizes (log2)
system.mem_ctrls0.writePktSize::2                   0                       # Write request sizes (log2)
system.mem_ctrls0.writePktSize::3                   0                       # Write request sizes (log2)
system.mem_ctrls0.writePktSize::4                   0                       # Write request sizes (log2)
system.mem_ctrls0.writePktSize::5                   0                       # Write request sizes (log2)
system.mem_ctrls0.writePktSize::6              334709                       # Write request sizes (log2)
system.mem_ctrls0.rdQLenPdf::0                 204644                       # What read queue length does an incoming req see
system.mem_ctrls0.rdQLenPdf::1                   5827                       # What read queue length does an incoming req see
system.mem_ctrls0.rdQLenPdf::2                   3162                       # What read queue length does an incoming req see
system.mem_ctrls0.rdQLenPdf::3                    641                       # What read queue length does an incoming req see
system.mem_ctrls0.rdQLenPdf::4                    770                       # What read queue length does an incoming req see
system.mem_ctrls0.rdQLenPdf::5                    822                       # What read queue length does an incoming req see
system.mem_ctrls0.rdQLenPdf::6                    933                       # What read queue length does an incoming req see
system.mem_ctrls0.rdQLenPdf::7                    943                       # What read queue length does an incoming req see
system.mem_ctrls0.rdQLenPdf::8                    987                       # What read queue length does an incoming req see
system.mem_ctrls0.rdQLenPdf::9                    977                       # What read queue length does an incoming req see
system.mem_ctrls0.rdQLenPdf::10                  1029                       # What read queue length does an incoming req see
system.mem_ctrls0.rdQLenPdf::11                  1007                       # What read queue length does an incoming req see
system.mem_ctrls0.rdQLenPdf::12                  1054                       # What read queue length does an incoming req see
system.mem_ctrls0.rdQLenPdf::13                  1106                       # What read queue length does an incoming req see
system.mem_ctrls0.rdQLenPdf::14                  1196                       # What read queue length does an incoming req see
system.mem_ctrls0.rdQLenPdf::15                  1219                       # What read queue length does an incoming req see
system.mem_ctrls0.rdQLenPdf::16                  1228                       # What read queue length does an incoming req see
system.mem_ctrls0.rdQLenPdf::17                  1341                       # What read queue length does an incoming req see
system.mem_ctrls0.rdQLenPdf::18                  1317                       # What read queue length does an incoming req see
system.mem_ctrls0.rdQLenPdf::19                  1353                       # What read queue length does an incoming req see
system.mem_ctrls0.rdQLenPdf::20                  1426                       # What read queue length does an incoming req see
system.mem_ctrls0.rdQLenPdf::21                  1504                       # What read queue length does an incoming req see
system.mem_ctrls0.rdQLenPdf::22                  1568                       # What read queue length does an incoming req see
system.mem_ctrls0.rdQLenPdf::23                  1668                       # What read queue length does an incoming req see
system.mem_ctrls0.rdQLenPdf::24                  1724                       # What read queue length does an incoming req see
system.mem_ctrls0.rdQLenPdf::25                  1860                       # What read queue length does an incoming req see
system.mem_ctrls0.rdQLenPdf::26                  2026                       # What read queue length does an incoming req see
system.mem_ctrls0.rdQLenPdf::27                  2166                       # What read queue length does an incoming req see
system.mem_ctrls0.rdQLenPdf::28                  2251                       # What read queue length does an incoming req see
system.mem_ctrls0.rdQLenPdf::29                  2599                       # What read queue length does an incoming req see
system.mem_ctrls0.rdQLenPdf::30                  3269                       # What read queue length does an incoming req see
system.mem_ctrls0.rdQLenPdf::31                141192                       # What read queue length does an incoming req see
system.mem_ctrls0.wrQLenPdf::0                  48454                       # What write queue length does an incoming req see
system.mem_ctrls0.wrQLenPdf::1                  50993                       # What write queue length does an incoming req see
system.mem_ctrls0.wrQLenPdf::2                  52470                       # What write queue length does an incoming req see
system.mem_ctrls0.wrQLenPdf::3                  52837                       # What write queue length does an incoming req see
system.mem_ctrls0.wrQLenPdf::4                  54062                       # What write queue length does an incoming req see
system.mem_ctrls0.wrQLenPdf::5                  16519                       # What write queue length does an incoming req see
system.mem_ctrls0.wrQLenPdf::6                  21940                       # What write queue length does an incoming req see
system.mem_ctrls0.wrQLenPdf::7                  37434                       # What write queue length does an incoming req see
system.mem_ctrls0.bytesPerActivate::samples       214810                       # Bytes accessed per row activation
system.mem_ctrls0.bytesPerActivate::mean   217.349434                       # Bytes accessed per row activation
system.mem_ctrls0.bytesPerActivate::gmean   165.177476                       # Bytes accessed per row activation
system.mem_ctrls0.bytesPerActivate::stdev   166.571116                       # Bytes accessed per row activation
system.mem_ctrls0.bytesPerActivate::0-127        67911     31.61%     31.61% # Bytes accessed per row activation
system.mem_ctrls0.bytesPerActivate::128-255        53996     25.14%     56.75% # Bytes accessed per row activation
system.mem_ctrls0.bytesPerActivate::256-383        69823     32.50%     89.26% # Bytes accessed per row activation
system.mem_ctrls0.bytesPerActivate::384-511        10310      4.80%     94.06% # Bytes accessed per row activation
system.mem_ctrls0.bytesPerActivate::512-639         5940      2.77%     96.82% # Bytes accessed per row activation
system.mem_ctrls0.bytesPerActivate::640-767         2827      1.32%     98.14% # Bytes accessed per row activation
system.mem_ctrls0.bytesPerActivate::768-895         1488      0.69%     98.83% # Bytes accessed per row activation
system.mem_ctrls0.bytesPerActivate::896-1023         1003      0.47%     99.30% # Bytes accessed per row activation
system.mem_ctrls0.bytesPerActivate::1024-1151         1512      0.70%    100.00% # Bytes accessed per row activation
system.mem_ctrls0.bytesPerActivate::total       214810                       # Bytes accessed per row activation
system.mem_ctrls0.rdPerTurnAround::samples        49943                       # Reads before turning the bus around for writes
system.mem_ctrls0.rdPerTurnAround::mean      7.904992                       # Reads before turning the bus around for writes
system.mem_ctrls0.rdPerTurnAround::stdev    18.974011                       # Reads before turning the bus around for writes
system.mem_ctrls0.rdPerTurnAround::0-127        49935     99.98%     99.98% # Reads before turning the bus around for writes
system.mem_ctrls0.rdPerTurnAround::128-255            7      0.01%    100.00% # Reads before turning the bus around for writes
system.mem_ctrls0.rdPerTurnAround::3968-4095            1      0.00%    100.00% # Reads before turning the bus around for writes
system.mem_ctrls0.rdPerTurnAround::total        49943                       # Reads before turning the bus around for writes
system.mem_ctrls0.wrPerTurnAround::samples        49943                       # Writes before turning the bus around for reads
system.mem_ctrls0.wrPerTurnAround::mean      6.701760                       # Writes before turning the bus around for reads
system.mem_ctrls0.wrPerTurnAround::gmean     6.089332                       # Writes before turning the bus around for reads
system.mem_ctrls0.wrPerTurnAround::stdev     3.532598                       # Writes before turning the bus around for reads
system.mem_ctrls0.wrPerTurnAround::4-7          40221     80.53%     80.53% # Writes before turning the bus around for reads
system.mem_ctrls0.wrPerTurnAround::8-11          1878      3.76%     84.29% # Writes before turning the bus around for reads
system.mem_ctrls0.wrPerTurnAround::12-15         5080     10.17%     94.47% # Writes before turning the bus around for reads
system.mem_ctrls0.wrPerTurnAround::16-19         2764      5.53%    100.00% # Writes before turning the bus around for reads
system.mem_ctrls0.wrPerTurnAround::total        49943                       # Writes before turning the bus around for reads
system.mem_ctrls0.totQLat                 65938912867                       # Total ticks spent queuing
system.mem_ctrls0.totMemAccLat            73341581617                       # Total ticks spent from burst creation until serviced by the DRAM
system.mem_ctrls0.totBusLat                1974045000                       # Total ticks spent in databus transfers
system.mem_ctrls0.avgQLat                   167014.72                       # Average queueing delay per DRAM burst
system.mem_ctrls0.avgBusLat                   5000.00                       # Average bus latency per DRAM burst
system.mem_ctrls0.avgMemAccLat              185764.72                       # Average memory access latency per DRAM burst
system.mem_ctrls0.avgRdBW                      164.29                       # Average DRAM read bandwidth in MiByte/s
system.mem_ctrls0.avgWrBW                      139.28                       # Average achieved write bandwidth in MiByte/s
system.mem_ctrls0.avgRdBWSys                   164.29                       # Average system read bandwidth in MiByte/s
system.mem_ctrls0.avgWrBWSys                   139.28                       # Average system write bandwidth in MiByte/s
system.mem_ctrls0.peakBW                     12800.00                       # Theoretical peak bandwidth in MiByte/s
system.mem_ctrls0.busUtil                        2.37                       # Data bus utilization in percentage
system.mem_ctrls0.busUtilRead                    1.28                       # Data bus utilization in percentage for reads
system.mem_ctrls0.busUtilWrite                   1.09                       # Data bus utilization in percentage for writes
system.mem_ctrls0.avgRdQLen                      1.44                       # Average read queue length when enqueuing
system.mem_ctrls0.avgWrQLen                      2.99                       # Average write queue length when enqueuing
system.mem_ctrls0.readRowHits                  295196                       # Number of row buffer hits during reads
system.mem_ctrls0.writeRowHits                 219507                       # Number of row buffer hits during writes
system.mem_ctrls0.readRowHitRate                74.77                       # Row buffer hit rate for reads
system.mem_ctrls0.writeRowHitRate               65.58                       # Row buffer hit rate for writes
system.mem_ctrls0.avgGap                    210823.87                       # Average gap between requests
system.mem_ctrls0.pageHitRate                   70.55                       # Row buffer hit rate, read and write combined
system.mem_ctrls0.memoryStateTime::IDLE   26565928750                       # Time in different power states
system.mem_ctrls0.memoryStateTime::REF     5135780000                       # Time in different power states
system.mem_ctrls0.memoryStateTime::PRE_PDN            0                       # Time in different power states
system.mem_ctrls0.memoryStateTime::ACT   122100464250                       # Time in different power states
system.mem_ctrls0.memoryStateTime::ACT_PDN            0                       # Time in different power states
system.mem_ctrls0.actEnergy::0              817765200                       # Energy for activate commands per rank (pJ)
system.mem_ctrls0.actEnergy::1              806190840                       # Energy for activate commands per rank (pJ)
system.mem_ctrls0.preEnergy::0              446201250                       # Energy for precharge commands per rank (pJ)
system.mem_ctrls0.preEnergy::1              439885875                       # Energy for precharge commands per rank (pJ)
system.mem_ctrls0.readEnergy::0            1546443600                       # Energy for read commands per rank (pJ)
system.mem_ctrls0.readEnergy::1            1533012000                       # Energy for read commands per rank (pJ)
system.mem_ctrls0.writeEnergy::0           1086086880                       # Energy for write commands per rank (pJ)
system.mem_ctrls0.writeEnergy::1           1082808000                       # Energy for write commands per rank (pJ)
system.mem_ctrls0.refreshEnergy::0        10045585680                       # Energy for refresh commands per rank (pJ)
system.mem_ctrls0.refreshEnergy::1        10045585680                       # Energy for refresh commands per rank (pJ)
system.mem_ctrls0.actBackEnergy::0        61106380605                       # Energy for active background per rank (pJ)
system.mem_ctrls0.actBackEnergy::1        60851051100                       # Energy for active background per rank (pJ)
system.mem_ctrls0.preBackEnergy::0        38679145500                       # Energy for precharge background per rank (pJ)
system.mem_ctrls0.preBackEnergy::1        38903118750                       # Energy for precharge background per rank (pJ)
system.mem_ctrls0.totalEnergy::0         113727608715                       # Total energy per rank (pJ)
system.mem_ctrls0.totalEnergy::1         113661652245                       # Total energy per rank (pJ)
system.mem_ctrls0.averagePower::0          739.441406                       # Core power per rank (mW)
system.mem_ctrls0.averagePower::1          739.012566                       # Core power per rank (mW)
system.mem_ctrls1.bytes_read::ruby.dir_cntrl1     24508928                       # Number of bytes read from this memory
system.mem_ctrls1.bytes_read::total          24508928                       # Number of bytes read from this memory
system.mem_ctrls1.bytes_written::ruby.dir_cntrl1     20683520                       # Number of bytes written to this memory
system.mem_ctrls1.bytes_written::total       20683520                       # Number of bytes written to this memory
system.mem_ctrls1.num_reads::ruby.dir_cntrl1       382952                       # Number of read requests responded to by this memory
system.mem_ctrls1.num_reads::total             382952                       # Number of read requests responded to by this memory
system.mem_ctrls1.num_writes::ruby.dir_cntrl1       323180                       # Number of write requests responded to by this memory
system.mem_ctrls1.num_writes::total            323180                       # Number of write requests responded to by this memory
system.mem_ctrls1.bw_read::ruby.dir_cntrl1    159352272                       # Total read bandwidth from this memory (bytes/s)
system.mem_ctrls1.bw_read::total            159352272                       # Total read bandwidth from this memory (bytes/s)
system.mem_ctrls1.bw_write::ruby.dir_cntrl1    134480215                       # Write bandwidth from this memory (bytes/s)
system.mem_ctrls1.bw_write::total           134480215                       # Write bandwidth from this memory (bytes/s)
system.mem_ctrls1.bw_total::ruby.dir_cntrl1    293832488                       # Total bandwidth to/from this memory (bytes/s)
system.mem_ctrls1.bw_total::total           293832488                       # Total bandwidth to/from this memory (bytes/s)
system.mem_ctrls1.readReqs                     382952                       # Number of read requests accepted
system.mem_ctrls1.writeReqs                    323180                       # Number of write requests accepted
system.mem_ctrls1.readBursts                   382952                       # Number of DRAM read bursts, including those serviced by the write queue
system.mem_ctrls1.writeBursts                  323180                       # Number of DRAM write bursts, including those merged in the write queue
system.mem_ctrls1.bytesReadDRAM              24507840                       # Total number of bytes read from DRAM
system.mem_ctrls1.bytesReadWrQ                   1088                       # Total number of bytes read from write queue
system.mem_ctrls1.bytesWritten               20683456                       # Total number of bytes written to DRAM
system.mem_ctrls1.bytesReadSys               24508928                       # Total read bytes from the system interface side
system.mem_ctrls1.bytesWrittenSys            20683520                       # Total written bytes from the system interface side
system.mem_ctrls1.servicedByWrQ                    17                       # Number of DRAM read bursts serviced by the write queue
system.mem_ctrls1.mergedWrBursts                    0                       # Number of DRAM write bursts merged with an existing one
system.mem_ctrls1.neitherReadNorWriteReqs            0                       # Number of requests that are neither read nor write
system.mem_ctrls1.perBankRdBursts::0            23652                       # Per bank write bursts
system.mem_ctrls1.perBankRdBursts::1            24327                       # Per bank write bursts
system.mem_ctrls1.perBankRdBursts::2            23892                       # Per bank write bursts
system.mem_ctrls1.perBankRdBursts::3            24204                       # Per bank write bursts
system.mem_ctrls1.perBankRdBursts::4            23868                       # Per bank write bursts
system.mem_ctrls1.perBankRdBursts::5            24184                       # Per bank write bursts
system.mem_ctrls1.perBankRdBursts::6            24228                       # Per bank write bursts
system.mem_ctrls1.perBankRdBursts::7            24041                       # Per bank write bursts
system.mem_ctrls1.perBankRdBursts::8            23915                       # Per bank write bursts
system.mem_ctrls1.perBankRdBursts::9            24037                       # Per bank write bursts
system.mem_ctrls1.perBankRdBursts::10           23806                       # Per bank write bursts
system.mem_ctrls1.perBankRdBursts::11           24345                       # Per bank write bursts
system.mem_ctrls1.perBankRdBursts::12           23594                       # Per bank write bursts
system.mem_ctrls1.perBankRdBursts::13           23492                       # Per bank write bursts
system.mem_ctrls1.perBankRdBursts::14           23598                       # Per bank write bursts
system.mem_ctrls1.perBankRdBursts::15           23752                       # Per bank write bursts
system.mem_ctrls1.perBankWrBursts::0            20203                       # Per bank write bursts
system.mem_ctrls1.perBankWrBursts::1            20126                       # Per bank write bursts
system.mem_ctrls1.perBankWrBursts::2            20127                       # Per bank write bursts
system.mem_ctrls1.perBankWrBursts::3            20448                       # Per bank write bursts
system.mem_ctrls1.perBankWrBursts::4            20058                       # Per bank write bursts
system.mem_ctrls1.perBankWrBursts::5            20325                       # Per bank write bursts
system.mem_ctrls1.perBankWrBursts::6            20334                       # Per bank write bursts
system.mem_ctrls1.perBankWrBursts::7            20258                       # Per bank write bursts
system.mem_ctrls1.perBankWrBursts::8            20416                       # Per bank write bursts
system.mem_ctrls1.perBankWrBursts::9            20203                       # Per bank write bursts
system.mem_ctrls1.perBankWrBursts::10           20133                       # Per bank write bursts
system.mem_ctrls1.perBankWrBursts::11           20139                       # Per bank write bursts
system.mem_ctrls1.perBankWrBursts::12           19919                       # Per bank write bursts
system.mem_ctrls1.perBankWrBursts::13           20212                       # Per bank write bursts
system.mem_ctrls1.perBankWrBursts::14           20156                       # Per bank write bursts
system.mem_ctrls1.perBankWrBursts::15           20122                       # Per bank write bursts
system.mem_ctrls1.numRdRetry                    94769                       # Number of times read queue was full causing retry
system.mem_ctrls1.numWrRetry                    13621                       # Number of times write queue was full causing retry
system.mem_ctrls1.totGap                 153802687500                       # Total gap between requests
system.mem_ctrls1.readPktSize::0                    0                       # Read request sizes (log2)
system.mem_ctrls1.readPktSize::1                    0                       # Read request sizes (log2)
system.mem_ctrls1.readPktSize::2                    0                       # Read request sizes (log2)
system.mem_ctrls1.readPktSize::3                    0                       # Read request sizes (log2)
system.mem_ctrls1.readPktSize::4                    0                       # Read request sizes (log2)
system.mem_ctrls1.readPktSize::5                    0                       # Read request sizes (log2)
system.mem_ctrls1.readPktSize::6               382952                       # Read request sizes (log2)
system.mem_ctrls1.writePktSize::0                   0                       # Write request sizes (log2)
system.mem_ctrls1.writePktSize::1                   0                       # Write request sizes (log2)
system.mem_ctrls1.writePktSize::2                   0                       # Write request sizes (log2)
system.mem_ctrls1.writePktSize::3                   0                       # Write request sizes (log2)
system.mem_ctrls1.writePktSize::4                   0                       # Write request sizes (log2)
system.mem_ctrls1.writePktSize::5                   0                       # Write request sizes (log2)
system.mem_ctrls1.writePktSize::6              323180                       # Write request sizes (log2)
system.mem_ctrls1.rdQLenPdf::0                 200372                       # What read queue length does an incoming req see
system.mem_ctrls1.rdQLenPdf::1                   1571                       # What read queue length does an incoming req see
system.mem_ctrls1.rdQLenPdf::2                   1073                       # What read queue length does an incoming req see
system.mem_ctrls1.rdQLenPdf::3                   1327                       # What read queue length does an incoming req see
system.mem_ctrls1.rdQLenPdf::4                   1550                       # What read queue length does an incoming req see
system.mem_ctrls1.rdQLenPdf::5                   1803                       # What read queue length does an incoming req see
system.mem_ctrls1.rdQLenPdf::6                   1927                       # What read queue length does an incoming req see
system.mem_ctrls1.rdQLenPdf::7                   2016                       # What read queue length does an incoming req see
system.mem_ctrls1.rdQLenPdf::8                   2080                       # What read queue length does an incoming req see
system.mem_ctrls1.rdQLenPdf::9                   2111                       # What read queue length does an incoming req see
system.mem_ctrls1.rdQLenPdf::10                  2280                       # What read queue length does an incoming req see
system.mem_ctrls1.rdQLenPdf::11                  2364                       # What read queue length does an incoming req see
system.mem_ctrls1.rdQLenPdf::12                  2332                       # What read queue length does an incoming req see
system.mem_ctrls1.rdQLenPdf::13                  2404                       # What read queue length does an incoming req see
system.mem_ctrls1.rdQLenPdf::14                  2521                       # What read queue length does an incoming req see
system.mem_ctrls1.rdQLenPdf::15                  2661                       # What read queue length does an incoming req see
system.mem_ctrls1.rdQLenPdf::16                  2716                       # What read queue length does an incoming req see
system.mem_ctrls1.rdQLenPdf::17                  2832                       # What read queue length does an incoming req see
system.mem_ctrls1.rdQLenPdf::18                  2897                       # What read queue length does an incoming req see
system.mem_ctrls1.rdQLenPdf::19                  2912                       # What read queue length does an incoming req see
system.mem_ctrls1.rdQLenPdf::20                  3080                       # What read queue length does an incoming req see
system.mem_ctrls1.rdQLenPdf::21                  3086                       # What read queue length does an incoming req see
system.mem_ctrls1.rdQLenPdf::22                  3174                       # What read queue length does an incoming req see
system.mem_ctrls1.rdQLenPdf::23                  3109                       # What read queue length does an incoming req see
system.mem_ctrls1.rdQLenPdf::24                  3233                       # What read queue length does an incoming req see
system.mem_ctrls1.rdQLenPdf::25                  3432                       # What read queue length does an incoming req see
system.mem_ctrls1.rdQLenPdf::26                  3584                       # What read queue length does an incoming req see
system.mem_ctrls1.rdQLenPdf::27                  3770                       # What read queue length does an incoming req see
system.mem_ctrls1.rdQLenPdf::28                  4056                       # What read queue length does an incoming req see
system.mem_ctrls1.rdQLenPdf::29                  4306                       # What read queue length does an incoming req see
system.mem_ctrls1.rdQLenPdf::30                  4929                       # What read queue length does an incoming req see
system.mem_ctrls1.rdQLenPdf::31                101427                       # What read queue length does an incoming req see
system.mem_ctrls1.wrQLenPdf::0                  46711                       # What write queue length does an incoming req see
system.mem_ctrls1.wrQLenPdf::1                  50427                       # What write queue length does an incoming req see
system.mem_ctrls1.wrQLenPdf::2                  52057                       # What write queue length does an incoming req see
system.mem_ctrls1.wrQLenPdf::3                  52662                       # What write queue length does an incoming req see
system.mem_ctrls1.wrQLenPdf::4                  53374                       # What write queue length does an incoming req see
system.mem_ctrls1.wrQLenPdf::5                  16752                       # What write queue length does an incoming req see
system.mem_ctrls1.wrQLenPdf::6                  20374                       # What write queue length does an incoming req see
system.mem_ctrls1.wrQLenPdf::7                  30823                       # What write queue length does an incoming req see
system.mem_ctrls1.bytesPerActivate::samples       186346                       # Bytes accessed per row activation
system.mem_ctrls1.bytesPerActivate::mean   242.508366                       # Bytes accessed per row activation
system.mem_ctrls1.bytesPerActivate::gmean   191.294070                       # Bytes accessed per row activation
system.mem_ctrls1.bytesPerActivate::stdev   170.799779                       # Bytes accessed per row activation
system.mem_ctrls1.bytesPerActivate::0-127        39870     21.40%     21.40% # Bytes accessed per row activation
system.mem_ctrls1.bytesPerActivate::128-255        52692     28.28%     49.67% # Bytes accessed per row activation
system.mem_ctrls1.bytesPerActivate::256-383        69987     37.56%     87.23% # Bytes accessed per row activation
system.mem_ctrls1.bytesPerActivate::384-511        10386      5.57%     92.80% # Bytes accessed per row activation
system.mem_ctrls1.bytesPerActivate::512-639         6120      3.28%     96.09% # Bytes accessed per row activation
system.mem_ctrls1.bytesPerActivate::640-767         2759      1.48%     97.57% # Bytes accessed per row activation
system.mem_ctrls1.bytesPerActivate::768-895         1565      0.84%     98.41% # Bytes accessed per row activation
system.mem_ctrls1.bytesPerActivate::896-1023         1037      0.56%     98.96% # Bytes accessed per row activation
system.mem_ctrls1.bytesPerActivate::1024-1151         1930      1.04%    100.00% # Bytes accessed per row activation
system.mem_ctrls1.bytesPerActivate::total       186346                       # Bytes accessed per row activation
system.mem_ctrls1.rdPerTurnAround::samples        48426                       # Reads before turning the bus around for writes
system.mem_ctrls1.rdPerTurnAround::mean      7.907488                       # Reads before turning the bus around for writes
system.mem_ctrls1.rdPerTurnAround::stdev    15.627232                       # Reads before turning the bus around for writes
system.mem_ctrls1.rdPerTurnAround::0-127        48420     99.99%     99.99% # Reads before turning the bus around for writes
system.mem_ctrls1.rdPerTurnAround::128-255            4      0.01%    100.00% # Reads before turning the bus around for writes
system.mem_ctrls1.rdPerTurnAround::1152-1279            1      0.00%    100.00% # Reads before turning the bus around for writes
system.mem_ctrls1.rdPerTurnAround::2816-2943            1      0.00%    100.00% # Reads before turning the bus around for writes
system.mem_ctrls1.rdPerTurnAround::total        48426                       # Reads before turning the bus around for writes
system.mem_ctrls1.wrPerTurnAround::samples        48426                       # Writes before turning the bus around for reads
system.mem_ctrls1.wrPerTurnAround::mean      6.673667                       # Writes before turning the bus around for reads
system.mem_ctrls1.wrPerTurnAround::gmean     6.079231                       # Writes before turning the bus around for reads
system.mem_ctrls1.wrPerTurnAround::stdev     3.470224                       # Writes before turning the bus around for reads
system.mem_ctrls1.wrPerTurnAround::4-7          38553     79.61%     79.61% # Writes before turning the bus around for reads
system.mem_ctrls1.wrPerTurnAround::8-11          2838      5.86%     85.47% # Writes before turning the bus around for reads
system.mem_ctrls1.wrPerTurnAround::12-15         4293      8.87%     94.34% # Writes before turning the bus around for reads
system.mem_ctrls1.wrPerTurnAround::16-19         2742      5.66%    100.00% # Writes before turning the bus around for reads
system.mem_ctrls1.wrPerTurnAround::total        48426                       # Writes before turning the bus around for reads
system.mem_ctrls1.totQLat                 58409975886                       # Total ticks spent queuing
system.mem_ctrls1.totMemAccLat            65590007136                       # Total ticks spent from burst creation until serviced by the DRAM
system.mem_ctrls1.totBusLat                1914675000                       # Total ticks spent in databus transfers
system.mem_ctrls1.avgQLat                   152532.35                       # Average queueing delay per DRAM burst
system.mem_ctrls1.avgBusLat                   5000.00                       # Average bus latency per DRAM burst
system.mem_ctrls1.avgMemAccLat              171282.35                       # Average memory access latency per DRAM burst
system.mem_ctrls1.avgRdBW                      159.35                       # Average DRAM read bandwidth in MiByte/s
system.mem_ctrls1.avgWrBW                      134.48                       # Average achieved write bandwidth in MiByte/s
system.mem_ctrls1.avgRdBWSys                   159.35                       # Average system read bandwidth in MiByte/s
system.mem_ctrls1.avgWrBWSys                   134.48                       # Average system write bandwidth in MiByte/s
system.mem_ctrls1.peakBW                     12800.00                       # Theoretical peak bandwidth in MiByte/s
system.mem_ctrls1.busUtil                        2.30                       # Data bus utilization in percentage
system.mem_ctrls1.busUtilRead                    1.24                       # Data bus utilization in percentage for reads
system.mem_ctrls1.busUtilWrite                   1.05                       # Data bus utilization in percentage for writes
system.mem_ctrls1.avgRdQLen                      1.39                       # Average read queue length when enqueuing
system.mem_ctrls1.avgWrQLen                      2.99                       # Average write queue length when enqueuing
system.mem_ctrls1.readRowHits                  291576                       # Number of row buffer hits during reads
system.mem_ctrls1.writeRowHits                 228186                       # Number of row buffer hits during writes
system.mem_ctrls1.readRowHitRate                76.14                       # Row buffer hit rate for reads
system.mem_ctrls1.writeRowHitRate               70.61                       # Row buffer hit rate for writes
system.mem_ctrls1.avgGap                    217810.11                       # Average gap between requests
system.mem_ctrls1.pageHitRate                   73.61                       # Row buffer hit rate, read and write combined
system.mem_ctrls1.memoryStateTime::IDLE   27041987500                       # Time in different power states
system.mem_ctrls1.memoryStateTime::REF     5135780000                       # Time in different power states
system.mem_ctrls1.memoryStateTime::PRE_PDN            0                       # Time in different power states
system.mem_ctrls1.memoryStateTime::ACT   121624399500                       # Time in different power states
system.mem_ctrls1.memoryStateTime::ACT_PDN            0                       # Time in different power states
system.mem_ctrls1.actEnergy::0              709483320                       # Energy for activate commands per rank (pJ)
system.mem_ctrls1.actEnergy::1              699284880                       # Energy for activate commands per rank (pJ)
system.mem_ctrls1.preEnergy::0              387118875                       # Energy for precharge commands per rank (pJ)
system.mem_ctrls1.preEnergy::1              381554250                       # Energy for precharge commands per rank (pJ)
system.mem_ctrls1.readEnergy::0            1500673200                       # Energy for read commands per rank (pJ)
system.mem_ctrls1.readEnergy::1            1486149600                       # Energy for read commands per rank (pJ)
system.mem_ctrls1.writeEnergy::0           1048962960                       # Energy for write commands per rank (pJ)
system.mem_ctrls1.writeEnergy::1           1045204560                       # Energy for write commands per rank (pJ)
system.mem_ctrls1.refreshEnergy::0        10045585680                       # Energy for refresh commands per rank (pJ)
system.mem_ctrls1.refreshEnergy::1        10045585680                       # Energy for refresh commands per rank (pJ)
system.mem_ctrls1.actBackEnergy::0        60074376795                       # Energy for active background per rank (pJ)
system.mem_ctrls1.actBackEnergy::1        59599960380                       # Energy for active background per rank (pJ)
system.mem_ctrls1.preBackEnergy::0        39584412000                       # Energy for precharge background per rank (pJ)
system.mem_ctrls1.preBackEnergy::1        40000566750                       # Energy for precharge background per rank (pJ)
system.mem_ctrls1.totalEnergy::0         113350612830                       # Total energy per rank (pJ)
system.mem_ctrls1.totalEnergy::1         113258306100                       # Total energy per rank (pJ)
system.mem_ctrls1.averagePower::0          736.990230                       # Core power per rank (mW)
system.mem_ctrls1.averagePower::1          736.390064                       # Core power per rank (mW)
system.mem_ctrls2.bytes_read::ruby.dir_cntrl2     24509184                       # Number of bytes read from this memory
system.mem_ctrls2.bytes_read::total          24509184                       # Number of bytes read from this memory
system.mem_ctrls2.bytes_written::ruby.dir_cntrl2     20684864                       # Number of bytes written to this memory
system.mem_ctrls2.bytes_written::total       20684864                       # Number of bytes written to this memory
system.mem_ctrls2.num_reads::ruby.dir_cntrl2       382956                       # Number of read requests responded to by this memory
system.mem_ctrls2.num_reads::total             382956                       # Number of read requests responded to by this memory
system.mem_ctrls2.num_writes::ruby.dir_cntrl2       323201                       # Number of write requests responded to by this memory
system.mem_ctrls2.num_writes::total            323201                       # Number of write requests responded to by this memory
system.mem_ctrls2.bw_read::ruby.dir_cntrl2    159353937                       # Total read bandwidth from this memory (bytes/s)
system.mem_ctrls2.bw_read::total            159353937                       # Total read bandwidth from this memory (bytes/s)
system.mem_ctrls2.bw_write::ruby.dir_cntrl2    134488954                       # Write bandwidth from this memory (bytes/s)
system.mem_ctrls2.bw_write::total           134488954                       # Write bandwidth from this memory (bytes/s)
system.mem_ctrls2.bw_total::ruby.dir_cntrl2    293842891                       # Total bandwidth to/from this memory (bytes/s)
system.mem_ctrls2.bw_total::total           293842891                       # Total bandwidth to/from this memory (bytes/s)
system.mem_ctrls2.readReqs                     382956                       # Number of read requests accepted
system.mem_ctrls2.writeReqs                    323201                       # Number of write requests accepted
system.mem_ctrls2.readBursts                   382956                       # Number of DRAM read bursts, including those serviced by the write queue
system.mem_ctrls2.writeBursts                  323201                       # Number of DRAM write bursts, including those merged in the write queue
system.mem_ctrls2.bytesReadDRAM              24508032                       # Total number of bytes read from DRAM
system.mem_ctrls2.bytesReadWrQ                   1152                       # Total number of bytes read from write queue
system.mem_ctrls2.bytesWritten               20684608                       # Total number of bytes written to DRAM
system.mem_ctrls2.bytesReadSys               24509184                       # Total read bytes from the system interface side
system.mem_ctrls2.bytesWrittenSys            20684864                       # Total written bytes from the system interface side
system.mem_ctrls2.servicedByWrQ                    18                       # Number of DRAM read bursts serviced by the write queue
system.mem_ctrls2.mergedWrBursts                    0                       # Number of DRAM write bursts merged with an existing one
system.mem_ctrls2.neitherReadNorWriteReqs            0                       # Number of requests that are neither read nor write
system.mem_ctrls2.perBankRdBursts::0            23639                       # Per bank write bursts
system.mem_ctrls2.perBankRdBursts::1            24299                       # Per bank write bursts
system.mem_ctrls2.perBankRdBursts::2            23934                       # Per bank write bursts
system.mem_ctrls2.perBankRdBursts::3            24276                       # Per bank write bursts
system.mem_ctrls2.perBankRdBursts::4            23867                       # Per bank write bursts
system.mem_ctrls2.perBankRdBursts::5            24154                       # Per bank write bursts
system.mem_ctrls2.perBankRdBursts::6            24228                       # Per bank write bursts
system.mem_ctrls2.perBankRdBursts::7            24027                       # Per bank write bursts
system.mem_ctrls2.perBankRdBursts::8            23897                       # Per bank write bursts
system.mem_ctrls2.perBankRdBursts::9            24048                       # Per bank write bursts
system.mem_ctrls2.perBankRdBursts::10           23816                       # Per bank write bursts
system.mem_ctrls2.perBankRdBursts::11           24325                       # Per bank write bursts
system.mem_ctrls2.perBankRdBursts::12           23625                       # Per bank write bursts
system.mem_ctrls2.perBankRdBursts::13           23436                       # Per bank write bursts
system.mem_ctrls2.perBankRdBursts::14           23589                       # Per bank write bursts
system.mem_ctrls2.perBankRdBursts::15           23778                       # Per bank write bursts
system.mem_ctrls2.perBankWrBursts::0            20196                       # Per bank write bursts
system.mem_ctrls2.perBankWrBursts::1            20123                       # Per bank write bursts
system.mem_ctrls2.perBankWrBursts::2            20129                       # Per bank write bursts
system.mem_ctrls2.perBankWrBursts::3            20452                       # Per bank write bursts
system.mem_ctrls2.perBankWrBursts::4            20060                       # Per bank write bursts
system.mem_ctrls2.perBankWrBursts::5            20309                       # Per bank write bursts
system.mem_ctrls2.perBankWrBursts::6            20338                       # Per bank write bursts
system.mem_ctrls2.perBankWrBursts::7            20265                       # Per bank write bursts
system.mem_ctrls2.perBankWrBursts::8            20417                       # Per bank write bursts
system.mem_ctrls2.perBankWrBursts::9            20210                       # Per bank write bursts
system.mem_ctrls2.perBankWrBursts::10           20126                       # Per bank write bursts
system.mem_ctrls2.perBankWrBursts::11           20136                       # Per bank write bursts
system.mem_ctrls2.perBankWrBursts::12           19925                       # Per bank write bursts
system.mem_ctrls2.perBankWrBursts::13           20207                       # Per bank write bursts
system.mem_ctrls2.perBankWrBursts::14           20166                       # Per bank write bursts
system.mem_ctrls2.perBankWrBursts::15           20138                       # Per bank write bursts
system.mem_ctrls2.numRdRetry                    87759                       # Number of times read queue was full causing retry
system.mem_ctrls2.numWrRetry                    13088                       # Number of times write queue was full causing retry
system.mem_ctrls2.totGap                 153802588000                       # Total gap between requests
system.mem_ctrls2.readPktSize::0                    0                       # Read request sizes (log2)
system.mem_ctrls2.readPktSize::1                    0                       # Read request sizes (log2)
system.mem_ctrls2.readPktSize::2                    0                       # Read request sizes (log2)
system.mem_ctrls2.readPktSize::3                    0                       # Read request sizes (log2)
system.mem_ctrls2.readPktSize::4                    0                       # Read request sizes (log2)
system.mem_ctrls2.readPktSize::5                    0                       # Read request sizes (log2)
system.mem_ctrls2.readPktSize::6               382956                       # Read request sizes (log2)
system.mem_ctrls2.writePktSize::0                   0                       # Write request sizes (log2)
system.mem_ctrls2.writePktSize::1                   0                       # Write request sizes (log2)
system.mem_ctrls2.writePktSize::2                   0                       # Write request sizes (log2)
system.mem_ctrls2.writePktSize::3                   0                       # Write request sizes (log2)
system.mem_ctrls2.writePktSize::4                   0                       # Write request sizes (log2)
system.mem_ctrls2.writePktSize::5                   0                       # Write request sizes (log2)
system.mem_ctrls2.writePktSize::6              323201                       # Write request sizes (log2)
system.mem_ctrls2.rdQLenPdf::0                 200611                       # What read queue length does an incoming req see
system.mem_ctrls2.rdQLenPdf::1                   1338                       # What read queue length does an incoming req see
system.mem_ctrls2.rdQLenPdf::2                   1159                       # What read queue length does an incoming req see
system.mem_ctrls2.rdQLenPdf::3                   1344                       # What read queue length does an incoming req see
system.mem_ctrls2.rdQLenPdf::4                   1547                       # What read queue length does an incoming req see
system.mem_ctrls2.rdQLenPdf::5                   1759                       # What read queue length does an incoming req see
system.mem_ctrls2.rdQLenPdf::6                   1929                       # What read queue length does an incoming req see
system.mem_ctrls2.rdQLenPdf::7                   2088                       # What read queue length does an incoming req see
system.mem_ctrls2.rdQLenPdf::8                   2175                       # What read queue length does an incoming req see
system.mem_ctrls2.rdQLenPdf::9                   2274                       # What read queue length does an incoming req see
system.mem_ctrls2.rdQLenPdf::10                  2416                       # What read queue length does an incoming req see
system.mem_ctrls2.rdQLenPdf::11                  2470                       # What read queue length does an incoming req see
system.mem_ctrls2.rdQLenPdf::12                  2557                       # What read queue length does an incoming req see
system.mem_ctrls2.rdQLenPdf::13                  2704                       # What read queue length does an incoming req see
system.mem_ctrls2.rdQLenPdf::14                  2758                       # What read queue length does an incoming req see
system.mem_ctrls2.rdQLenPdf::15                  2952                       # What read queue length does an incoming req see
system.mem_ctrls2.rdQLenPdf::16                  3069                       # What read queue length does an incoming req see
system.mem_ctrls2.rdQLenPdf::17                  3033                       # What read queue length does an incoming req see
system.mem_ctrls2.rdQLenPdf::18                  3135                       # What read queue length does an incoming req see
system.mem_ctrls2.rdQLenPdf::19                  3174                       # What read queue length does an incoming req see
system.mem_ctrls2.rdQLenPdf::20                  3213                       # What read queue length does an incoming req see
system.mem_ctrls2.rdQLenPdf::21                  3325                       # What read queue length does an incoming req see
system.mem_ctrls2.rdQLenPdf::22                  3353                       # What read queue length does an incoming req see
system.mem_ctrls2.rdQLenPdf::23                  3443                       # What read queue length does an incoming req see
system.mem_ctrls2.rdQLenPdf::24                  3523                       # What read queue length does an incoming req see
system.mem_ctrls2.rdQLenPdf::25                  3677                       # What read queue length does an incoming req see
system.mem_ctrls2.rdQLenPdf::26                  3963                       # What read queue length does an incoming req see
system.mem_ctrls2.rdQLenPdf::27                  4240                       # What read queue length does an incoming req see
system.mem_ctrls2.rdQLenPdf::28                  4596                       # What read queue length does an incoming req see
system.mem_ctrls2.rdQLenPdf::29                  4905                       # What read queue length does an incoming req see
system.mem_ctrls2.rdQLenPdf::30                  5372                       # What read queue length does an incoming req see
system.mem_ctrls2.rdQLenPdf::31                 94836                       # What read queue length does an incoming req see
system.mem_ctrls2.wrQLenPdf::0                  46781                       # What write queue length does an incoming req see
system.mem_ctrls2.wrQLenPdf::1                  50746                       # What write queue length does an incoming req see
system.mem_ctrls2.wrQLenPdf::2                  52366                       # What write queue length does an incoming req see
system.mem_ctrls2.wrQLenPdf::3                  53109                       # What write queue length does an incoming req see
system.mem_ctrls2.wrQLenPdf::4                  53814                       # What write queue length does an incoming req see
system.mem_ctrls2.wrQLenPdf::5                  16799                       # What write queue length does an incoming req see
system.mem_ctrls2.wrQLenPdf::6                  20080                       # What write queue length does an incoming req see
system.mem_ctrls2.wrQLenPdf::7                  29506                       # What write queue length does an incoming req see
system.mem_ctrls2.bytesPerActivate::samples       185772                       # Bytes accessed per row activation
system.mem_ctrls2.bytesPerActivate::mean   243.268006                       # Bytes accessed per row activation
system.mem_ctrls2.bytesPerActivate::gmean   192.274544                       # Bytes accessed per row activation
system.mem_ctrls2.bytesPerActivate::stdev   170.378498                       # Bytes accessed per row activation
system.mem_ctrls2.bytesPerActivate::0-127        39148     21.07%     21.07% # Bytes accessed per row activation
system.mem_ctrls2.bytesPerActivate::128-255        52139     28.07%     49.14% # Bytes accessed per row activation
system.mem_ctrls2.bytesPerActivate::256-383        70546     37.97%     87.11% # Bytes accessed per row activation
system.mem_ctrls2.bytesPerActivate::384-511        10545      5.68%     92.79% # Bytes accessed per row activation
system.mem_ctrls2.bytesPerActivate::512-639         6102      3.28%     96.07% # Bytes accessed per row activation
system.mem_ctrls2.bytesPerActivate::640-767         2815      1.52%     97.59% # Bytes accessed per row activation
system.mem_ctrls2.bytesPerActivate::768-895         1531      0.82%     98.41% # Bytes accessed per row activation
system.mem_ctrls2.bytesPerActivate::896-1023         1014      0.55%     98.96% # Bytes accessed per row activation
system.mem_ctrls2.bytesPerActivate::1024-1151         1932      1.04%    100.00% # Bytes accessed per row activation
system.mem_ctrls2.bytesPerActivate::total       185772                       # Bytes accessed per row activation
system.mem_ctrls2.rdPerTurnAround::samples        48517                       # Reads before turning the bus around for writes
system.mem_ctrls2.rdPerTurnAround::mean      7.892718                       # Reads before turning the bus around for writes
system.mem_ctrls2.rdPerTurnAround::stdev    15.673409                       # Reads before turning the bus around for writes
system.mem_ctrls2.rdPerTurnAround::0-127        48511     99.99%     99.99% # Reads before turning the bus around for writes
system.mem_ctrls2.rdPerTurnAround::128-255            4      0.01%    100.00% # Reads before turning the bus around for writes
system.mem_ctrls2.rdPerTurnAround::1152-1279            1      0.00%    100.00% # Reads before turning the bus around for writes
system.mem_ctrls2.rdPerTurnAround::2816-2943            1      0.00%    100.00% # Reads before turning the bus around for writes
system.mem_ctrls2.rdPerTurnAround::total        48517                       # Reads before turning the bus around for writes
system.mem_ctrls2.wrPerTurnAround::samples        48517                       # Writes before turning the bus around for reads
system.mem_ctrls2.wrPerTurnAround::mean      6.661521                       # Writes before turning the bus around for reads
system.mem_ctrls2.wrPerTurnAround::gmean     6.075379                       # Writes before turning the bus around for reads
system.mem_ctrls2.wrPerTurnAround::stdev     3.440655                       # Writes before turning the bus around for reads
system.mem_ctrls2.wrPerTurnAround::4-7          38581     79.52%     79.52% # Writes before turning the bus around for reads
system.mem_ctrls2.wrPerTurnAround::8-11          3070      6.33%     85.85% # Writes before turning the bus around for reads
system.mem_ctrls2.wrPerTurnAround::12-15         4187      8.63%     94.48% # Writes before turning the bus around for reads
system.mem_ctrls2.wrPerTurnAround::16-19         2679      5.52%    100.00% # Writes before turning the bus around for reads
system.mem_ctrls2.wrPerTurnAround::total        48517                       # Writes before turning the bus around for reads
system.mem_ctrls2.totQLat                 57557280592                       # Total ticks spent queuing
system.mem_ctrls2.totMemAccLat            64737368092                       # Total ticks spent from burst creation until serviced by the DRAM
system.mem_ctrls2.totBusLat                1914690000                       # Total ticks spent in databus transfers
system.mem_ctrls2.avgQLat                   150304.44                       # Average queueing delay per DRAM burst
system.mem_ctrls2.avgBusLat                   5000.00                       # Average bus latency per DRAM burst
system.mem_ctrls2.avgMemAccLat              169054.44                       # Average memory access latency per DRAM burst
system.mem_ctrls2.avgRdBW                      159.35                       # Average DRAM read bandwidth in MiByte/s
system.mem_ctrls2.avgWrBW                      134.49                       # Average achieved write bandwidth in MiByte/s
system.mem_ctrls2.avgRdBWSys                   159.35                       # Average system read bandwidth in MiByte/s
system.mem_ctrls2.avgWrBWSys                   134.49                       # Average system write bandwidth in MiByte/s
system.mem_ctrls2.peakBW                     12800.00                       # Theoretical peak bandwidth in MiByte/s
system.mem_ctrls2.busUtil                        2.30                       # Data bus utilization in percentage
system.mem_ctrls2.busUtilRead                    1.24                       # Data bus utilization in percentage for reads
system.mem_ctrls2.busUtilWrite                   1.05                       # Data bus utilization in percentage for writes
system.mem_ctrls2.avgRdQLen                      1.38                       # Average read queue length when enqueuing
system.mem_ctrls2.avgWrQLen                      3.01                       # Average write queue length when enqueuing
system.mem_ctrls2.readRowHits                  291601                       # Number of row buffer hits during reads
system.mem_ctrls2.writeRowHits                 228758                       # Number of row buffer hits during writes
system.mem_ctrls2.readRowHitRate                76.15                       # Row buffer hit rate for reads
system.mem_ctrls2.writeRowHitRate               70.78                       # Row buffer hit rate for writes
system.mem_ctrls2.avgGap                    217802.26                       # Average gap between requests
system.mem_ctrls2.pageHitRate                   73.69                       # Row buffer hit rate, read and write combined
system.mem_ctrls2.memoryStateTime::IDLE   27138611750                       # Time in different power states
system.mem_ctrls2.memoryStateTime::REF     5135780000                       # Time in different power states
system.mem_ctrls2.memoryStateTime::PRE_PDN            0                       # Time in different power states
system.mem_ctrls2.memoryStateTime::ACT   121527678250                       # Time in different power states
system.mem_ctrls2.memoryStateTime::ACT_PDN            0                       # Time in different power states
system.mem_ctrls2.actEnergy::0              706822200                       # Energy for activate commands per rank (pJ)
system.mem_ctrls2.actEnergy::1              697614120                       # Energy for activate commands per rank (pJ)
system.mem_ctrls2.preEnergy::0              385666875                       # Energy for precharge commands per rank (pJ)
system.mem_ctrls2.preEnergy::1              380642625                       # Energy for precharge commands per rank (pJ)
system.mem_ctrls2.readEnergy::0            1500891600                       # Energy for read commands per rank (pJ)
system.mem_ctrls2.readEnergy::1            1485993600                       # Energy for read commands per rank (pJ)
system.mem_ctrls2.writeEnergy::0           1048930560                       # Energy for write commands per rank (pJ)
system.mem_ctrls2.writeEnergy::1           1045386000                       # Energy for write commands per rank (pJ)
system.mem_ctrls2.refreshEnergy::0        10045585680                       # Energy for refresh commands per rank (pJ)
system.mem_ctrls2.refreshEnergy::1        10045585680                       # Energy for refresh commands per rank (pJ)
system.mem_ctrls2.actBackEnergy::0        59652117945                       # Energy for active background per rank (pJ)
system.mem_ctrls2.actBackEnergy::1        59190107580                       # Energy for active background per rank (pJ)
system.mem_ctrls2.preBackEnergy::0        39954814500                       # Energy for precharge background per rank (pJ)
system.mem_ctrls2.preBackEnergy::1        40360086750                       # Energy for precharge background per rank (pJ)
system.mem_ctrls2.totalEnergy::0         113294829360                       # Total energy per rank (pJ)
system.mem_ctrls2.totalEnergy::1         113205416355                       # Total energy per rank (pJ)
system.mem_ctrls2.averagePower::0          736.627534                       # Core power per rank (mW)
system.mem_ctrls2.averagePower::1          736.046182                       # Core power per rank (mW)
system.mem_ctrls3.bytes_read::ruby.dir_cntrl3     24489088                       # Number of bytes read from this memory
system.mem_ctrls3.bytes_read::total          24489088                       # Number of bytes read from this memory
system.mem_ctrls3.bytes_written::ruby.dir_cntrl3     20682624                       # Number of bytes written to this memory
system.mem_ctrls3.bytes_written::total       20682624                       # Number of bytes written to this memory
system.mem_ctrls3.num_reads::ruby.dir_cntrl3       382642                       # Number of read requests responded to by this memory
system.mem_ctrls3.num_reads::total             382642                       # Number of read requests responded to by this memory
system.mem_ctrls3.num_writes::ruby.dir_cntrl3       323166                       # Number of write requests responded to by this memory
system.mem_ctrls3.num_writes::total            323166                       # Number of write requests responded to by this memory
system.mem_ctrls3.bw_read::ruby.dir_cntrl3    159223277                       # Total read bandwidth from this memory (bytes/s)
system.mem_ctrls3.bw_read::total            159223277                       # Total read bandwidth from this memory (bytes/s)
system.mem_ctrls3.bw_write::ruby.dir_cntrl3    134474390                       # Write bandwidth from this memory (bytes/s)
system.mem_ctrls3.bw_write::total           134474390                       # Write bandwidth from this memory (bytes/s)
system.mem_ctrls3.bw_total::ruby.dir_cntrl3    293697666                       # Total bandwidth to/from this memory (bytes/s)
system.mem_ctrls3.bw_total::total           293697666                       # Total bandwidth to/from this memory (bytes/s)
system.mem_ctrls3.readReqs                     382642                       # Number of read requests accepted
system.mem_ctrls3.writeReqs                    323166                       # Number of write requests accepted
system.mem_ctrls3.readBursts                   382642                       # Number of DRAM read bursts, including those serviced by the write queue
system.mem_ctrls3.writeBursts                  323166                       # Number of DRAM write bursts, including those merged in the write queue
system.mem_ctrls3.bytesReadDRAM              24488448                       # Total number of bytes read from DRAM
system.mem_ctrls3.bytesReadWrQ                    640                       # Total number of bytes read from write queue
system.mem_ctrls3.bytesWritten               20682624                       # Total number of bytes written to DRAM
system.mem_ctrls3.bytesReadSys               24489088                       # Total read bytes from the system interface side
system.mem_ctrls3.bytesWrittenSys            20682624                       # Total written bytes from the system interface side
system.mem_ctrls3.servicedByWrQ                    10                       # Number of DRAM read bursts serviced by the write queue
system.mem_ctrls3.mergedWrBursts                    0                       # Number of DRAM write bursts merged with an existing one
system.mem_ctrls3.neitherReadNorWriteReqs            0                       # Number of requests that are neither read nor write
system.mem_ctrls3.perBankRdBursts::0            23629                       # Per bank write bursts
system.mem_ctrls3.perBankRdBursts::1            24296                       # Per bank write bursts
system.mem_ctrls3.perBankRdBursts::2            23812                       # Per bank write bursts
system.mem_ctrls3.perBankRdBursts::3            24239                       # Per bank write bursts
system.mem_ctrls3.perBankRdBursts::4            23815                       # Per bank write bursts
system.mem_ctrls3.perBankRdBursts::5            24164                       # Per bank write bursts
system.mem_ctrls3.perBankRdBursts::6            24223                       # Per bank write bursts
system.mem_ctrls3.perBankRdBursts::7            24030                       # Per bank write bursts
system.mem_ctrls3.perBankRdBursts::8            23882                       # Per bank write bursts
system.mem_ctrls3.perBankRdBursts::9            24026                       # Per bank write bursts
system.mem_ctrls3.perBankRdBursts::10           23880                       # Per bank write bursts
system.mem_ctrls3.perBankRdBursts::11           24274                       # Per bank write bursts
system.mem_ctrls3.perBankRdBursts::12           23558                       # Per bank write bursts
system.mem_ctrls3.perBankRdBursts::13           23446                       # Per bank write bursts
system.mem_ctrls3.perBankRdBursts::14           23607                       # Per bank write bursts
system.mem_ctrls3.perBankRdBursts::15           23751                       # Per bank write bursts
system.mem_ctrls3.perBankWrBursts::0            20198                       # Per bank write bursts
system.mem_ctrls3.perBankWrBursts::1            20120                       # Per bank write bursts
system.mem_ctrls3.perBankWrBursts::2            20133                       # Per bank write bursts
system.mem_ctrls3.perBankWrBursts::3            20441                       # Per bank write bursts
system.mem_ctrls3.perBankWrBursts::4            20054                       # Per bank write bursts
system.mem_ctrls3.perBankWrBursts::5            20310                       # Per bank write bursts
system.mem_ctrls3.perBankWrBursts::6            20344                       # Per bank write bursts
system.mem_ctrls3.perBankWrBursts::7            20253                       # Per bank write bursts
system.mem_ctrls3.perBankWrBursts::8            20413                       # Per bank write bursts
system.mem_ctrls3.perBankWrBursts::9            20209                       # Per bank write bursts
system.mem_ctrls3.perBankWrBursts::10           20126                       # Per bank write bursts
system.mem_ctrls3.perBankWrBursts::11           20146                       # Per bank write bursts
system.mem_ctrls3.perBankWrBursts::12           19924                       # Per bank write bursts
system.mem_ctrls3.perBankWrBursts::13           20215                       # Per bank write bursts
system.mem_ctrls3.perBankWrBursts::14           20162                       # Per bank write bursts
system.mem_ctrls3.perBankWrBursts::15           20118                       # Per bank write bursts
system.mem_ctrls3.numRdRetry                    84572                       # Number of times read queue was full causing retry
system.mem_ctrls3.numWrRetry                    12584                       # Number of times write queue was full causing retry
system.mem_ctrls3.totGap                 153802291500                       # Total gap between requests
system.mem_ctrls3.readPktSize::0                    0                       # Read request sizes (log2)
system.mem_ctrls3.readPktSize::1                    0                       # Read request sizes (log2)
system.mem_ctrls3.readPktSize::2                    0                       # Read request sizes (log2)
system.mem_ctrls3.readPktSize::3                    0                       # Read request sizes (log2)
system.mem_ctrls3.readPktSize::4                    0                       # Read request sizes (log2)
system.mem_ctrls3.readPktSize::5                    0                       # Read request sizes (log2)
system.mem_ctrls3.readPktSize::6               382642                       # Read request sizes (log2)
system.mem_ctrls3.writePktSize::0                   0                       # Write request sizes (log2)
system.mem_ctrls3.writePktSize::1                   0                       # Write request sizes (log2)
system.mem_ctrls3.writePktSize::2                   0                       # Write request sizes (log2)
system.mem_ctrls3.writePktSize::3                   0                       # Write request sizes (log2)
system.mem_ctrls3.writePktSize::4                   0                       # Write request sizes (log2)
system.mem_ctrls3.writePktSize::5                   0                       # Write request sizes (log2)
system.mem_ctrls3.writePktSize::6              323166                       # Write request sizes (log2)
system.mem_ctrls3.rdQLenPdf::0                 200249                       # What read queue length does an incoming req see
system.mem_ctrls3.rdQLenPdf::1                   1389                       # What read queue length does an incoming req see
system.mem_ctrls3.rdQLenPdf::2                   1152                       # What read queue length does an incoming req see
system.mem_ctrls3.rdQLenPdf::3                   1319                       # What read queue length does an incoming req see
system.mem_ctrls3.rdQLenPdf::4                   1505                       # What read queue length does an incoming req see
system.mem_ctrls3.rdQLenPdf::5                   1743                       # What read queue length does an incoming req see
system.mem_ctrls3.rdQLenPdf::6                   1865                       # What read queue length does an incoming req see
system.mem_ctrls3.rdQLenPdf::7                   2048                       # What read queue length does an incoming req see
system.mem_ctrls3.rdQLenPdf::8                   2183                       # What read queue length does an incoming req see
system.mem_ctrls3.rdQLenPdf::9                   2270                       # What read queue length does an incoming req see
system.mem_ctrls3.rdQLenPdf::10                  2423                       # What read queue length does an incoming req see
system.mem_ctrls3.rdQLenPdf::11                  2580                       # What read queue length does an incoming req see
system.mem_ctrls3.rdQLenPdf::12                  2743                       # What read queue length does an incoming req see
system.mem_ctrls3.rdQLenPdf::13                  2813                       # What read queue length does an incoming req see
system.mem_ctrls3.rdQLenPdf::14                  2949                       # What read queue length does an incoming req see
system.mem_ctrls3.rdQLenPdf::15                  3046                       # What read queue length does an incoming req see
system.mem_ctrls3.rdQLenPdf::16                  3161                       # What read queue length does an incoming req see
system.mem_ctrls3.rdQLenPdf::17                  3125                       # What read queue length does an incoming req see
system.mem_ctrls3.rdQLenPdf::18                  3220                       # What read queue length does an incoming req see
system.mem_ctrls3.rdQLenPdf::19                  3283                       # What read queue length does an incoming req see
system.mem_ctrls3.rdQLenPdf::20                  3473                       # What read queue length does an incoming req see
system.mem_ctrls3.rdQLenPdf::21                  3502                       # What read queue length does an incoming req see
system.mem_ctrls3.rdQLenPdf::22                  3729                       # What read queue length does an incoming req see
system.mem_ctrls3.rdQLenPdf::23                  3877                       # What read queue length does an incoming req see
system.mem_ctrls3.rdQLenPdf::24                  3930                       # What read queue length does an incoming req see
[...]
system.ruby.L2Cache_Controller.S_I.Ack::total            2                      
system.ruby.L2Cache_Controller.S_I.Ack_all |           0      0.00%      0.00% |           4     28.57%     28.57% |           1      7.14%     35.71% |           1      7.14%     42.86% |           0      0.00%     42.86% |           2     14.29%     57.14% |           0      0.00%     57.14% |           0      0.00%     57.14% |           0      0.00%     57.14% |           1      7.14%     64.29% |           1      7.14%     71.43% |           0      0.00%     71.43% |           0      0.00%     71.43% |           0      0.00%     71.43% |           1      7.14%     78.57% |           0      0.00%     78.57% |           0      0.00%     78.57% |           0      0.00%     78.57% |           1      7.14%     85.71% |           0      0.00%     85.71% |           0      0.00%     85.71% |           0      0.00%     85.71% |           0      0.00%     85.71% |           0      0.00%     85.71% |           1      7.14%     92.86% |           0      0.00%     92.86% |           0      0.00%     92.86% |           0      0.00%     92.86% |           1      7.14%    100.00% |           0      0.00%    100.00% |           0      0.00%    100.00% |           0      0.00%    100.00%
system.ruby.L2Cache_Controller.S_I.Ack_all::total           14                      
system.ruby.L2Cache_Controller.ISS.Mem_Data |       18675      7.92%      7.92% |        7079      3.00%     10.93% |        7082      3.00%     13.93% |        7030      2.98%     16.91% |        7001      2.97%     19.89% |        6982      2.96%     22.85% |        6996      2.97%     25.82% |        6992      2.97%     28.78% |        7030      2.98%     31.77% |        7033      2.98%     34.75% |        7064      3.00%     37.75% |        6988      2.96%     40.71% |        6992      2.97%     43.68% |        6992      2.97%     46.64% |        6995      2.97%     49.61% |        6959      2.95%     52.57% |        6998      2.97%     55.53% |        6974      2.96%     58.49% |        7005      2.97%     61.47% |        6983      2.96%     64.43% |        6980      2.96%     67.39% |        6966      2.96%     70.35% |        6993      2.97%     73.31% |        6984      2.96%     76.28% |        7003      2.97%     79.25% |        7004      2.97%     82.22% |        6984      2.96%     85.18% |        6960      2.95%     88.14% |        7003      2.97%     91.11% |        6983      2.96%     94.07% |        6959      2.95%     97.02% |        7018      2.98%    100.00%
system.ruby.L2Cache_Controller.ISS.Mem_Data::total       235687                      
system.ruby.L2Cache_Controller.IS.Mem_Data |         541      3.26%      3.26% |         471      2.83%      6.09% |         464      2.79%      8.88% |         465      2.80%     11.68% |         512      3.08%     14.76% |         467      2.81%     17.58% |         504      3.03%     20.61% |         529      3.18%     23.79% |         548      3.30%     27.09% |         487      2.93%     30.02% |         533      3.21%     33.23% |         566      3.41%     36.64% |         619      3.73%     40.36% |         561      3.38%     43.74% |         579      3.49%     47.23% |         523      3.15%     50.37% |         533      3.21%     53.58% |         569      3.42%     57.01% |         562      3.38%     60.39% |         509      3.06%     63.45% |         503      3.03%     66.48% |         520      3.13%     69.61% |         480      2.89%     72.50% |         468      2.82%     75.32% |         546      3.29%     78.60% |         592      3.56%     82.17% |         532      3.20%     85.37% |         479      2.88%     88.25% |         489      2.94%     91.19% |         510      3.07%     94.26% |         488      2.94%     97.20% |         465      2.80%    100.00%
system.ruby.L2Cache_Controller.IS.Mem_Data::total        16614                      
system.ruby.L2Cache_Controller.IM.L1_GETX |           1    100.00%    100.00% |           0      0.00%    100.00% |           0      0.00%    100.00% |           0      0.00%    100.00% |           0      0.00%    100.00% |           0      0.00%    100.00% |           0      0.00%    100.00% |           0      0.00%    100.00% |           0      0.00%    100.00% |           0      0.00%    100.00% |           0      0.00%    100.00% |           0      0.00%    100.00% |           0      0.00%    100.00% |           0      0.00%    100.00% |           0      0.00%    100.00% |           0      0.00%    100.00% |           0      0.00%    100.00% |           0      0.00%    100.00% |           0      0.00%    100.00% |           0      0.00%    100.00% |           0      0.00%    100.00% |           0      0.00%    100.00% |           0      0.00%    100.00% |           0      0.00%    100.00% |           0      0.00%    100.00% |           0      0.00%    100.00% |           0      0.00%    100.00% |           0      0.00%    100.00% |           0      0.00%    100.00% |           0      0.00%    100.00% |           0      0.00%    100.00% |           0      0.00%    100.00%
system.ruby.L2Cache_Controller.IM.L1_GETX::total            1                      
system.ruby.L2Cache_Controller.IM.Mem_Data |       40408      3.13%      3.13% |       40329      3.12%      6.25% |       40341      3.12%      9.38% |       40347      3.13%     12.50% |       40353      3.13%     15.63% |       40364      3.13%     18.76% |       40339      3.12%     21.88% |       40336      3.12%     25.00% |       40349      3.13%     28.13% |       40344      3.12%     31.25% |       40329      3.12%     34.38% |       40358      3.13%     37.50% |       40339      3.12%     40.63% |       40338      3.12%     43.75% |       40341      3.12%     46.88% |       40330      3.12%     50.00% |       40352      3.13%     53.13% |       40351      3.13%     56.25% |       40349      3.13%     59.38% |       40345      3.12%     62.50% |       40340      3.12%     65.63% |       40354      3.13%     68.75% |       40339      3.12%     71.88% |       40341      3.12%     75.00% |       40347      3.13%     78.13% |       40345      3.12%     81.25% |       40349      3.13%     84.38% |       40336      3.12%     87.50% |       40336      3.12%     90.63% |       40337      3.12%     93.75% |       40349      3.13%     96.88% |       40331      3.12%    100.00%
system.ruby.L2Cache_Controller.IM.Mem_Data::total      1291046                      
system.ruby.L2Cache_Controller.SS_MB.Exclusive_Unblock |           4      8.89%      8.89% |           6     13.33%     22.22% |           2      4.44%     26.67% |           6     13.33%     40.00% |           1      2.22%     42.22% |           0      0.00%     42.22% |           1      2.22%     44.44% |           0      0.00%     44.44% |           0      0.00%     44.44% |           1      2.22%     46.67% |           1      2.22%     48.89% |           0      0.00%     48.89% |           4      8.89%     57.78% |           0      0.00%     57.78% |           3      6.67%     64.44% |           0      0.00%     64.44% |           0      0.00%     64.44% |           0      0.00%     64.44% |           9     20.00%     84.44% |           0      0.00%     84.44% |           0      0.00%     84.44% |           0      0.00%     84.44% |           0      0.00%     84.44% |           0      0.00%     84.44% |           1      2.22%     86.67% |           2      4.44%     91.11% |           1      2.22%     93.33% |           1      2.22%     95.56% |           0      0.00%     95.56% |           1      2.22%     97.78% |           1      2.22%    100.00% |           0      0.00%    100.00%
system.ruby.L2Cache_Controller.SS_MB.Exclusive_Unblock::total           45                      
system.ruby.L2Cache_Controller.MT_MB.L1_PUTX |           2    100.00%    100.00% |           0      0.00%    100.00% |           0      0.00%    100.00% |           0      0.00%    100.00% |           0      0.00%    100.00% |           0      0.00%    100.00% |           0      0.00%    100.00% |           0      0.00%    100.00% |           0      0.00%    100.00% |           0      0.00%    100.00% |           0      0.00%    100.00% |           0      0.00%    100.00% |           0      0.00%    100.00% |           0      0.00%    100.00% |           0      0.00%    100.00% |           0      0.00%    100.00% |           0      0.00%    100.00% |           0      0.00%    100.00% |           0      0.00%    100.00% |           0      0.00%    100.00% |           0      0.00%    100.00% |           0      0.00%    100.00% |           0      0.00%    100.00% |           0      0.00%    100.00% |           0      0.00%    100.00% |           0      0.00%    100.00% |           0      0.00%    100.00% |           0      0.00%    100.00% |           0      0.00%    100.00% |           0      0.00%    100.00% |           0      0.00%    100.00% |           0      0.00%    100.00%
system.ruby.L2Cache_Controller.MT_MB.L1_PUTX::total            2                      
system.ruby.L2Cache_Controller.MT_MB.Exclusive_Unblock |      173298      8.49%      8.49% |       64269      3.15%     11.64% |       58758      2.88%     14.52% |       58458      2.86%     17.38% |       57799      2.83%     20.21% |       56500      2.77%     22.98% |       55006      2.69%     25.67% |       55302      2.71%     28.38% |       59154      2.90%     31.28% |       57720      2.83%     34.11% |       60645      2.97%     37.08% |       60209      2.95%     40.03% |       56859      2.79%     42.81% |       56793      2.78%     45.59% |       56448      2.77%     48.36% |       56867      2.79%     51.14% |       59187      2.90%     54.04% |       58515      2.87%     56.91% |       59886      2.93%     59.84% |       60877      2.98%     62.83% |       60907      2.98%     65.81% |       63095      3.09%     68.90% |       64328      3.15%     72.05% |       60549      2.97%     75.02% |       61079      2.99%     78.01% |       62472      3.06%     81.07% |       60797      2.98%     84.05% |       61417      3.01%     87.06% |       64093      3.14%     90.20% |       61913      3.03%     93.23% |       70030      3.43%     96.66% |       68217      3.34%    100.00%
system.ruby.L2Cache_Controller.MT_MB.Exclusive_Unblock::total      2041447                      
system.ruby.L2Cache_Controller.MT_IIB.WB_Data |           0      0.00%      0.00% |           0      0.00%      0.00% |           0      0.00%      0.00% |           0      0.00%      0.00% |           0      0.00%      0.00% |           1     50.00%     50.00% |           0      0.00%     50.00% |           0      0.00%     50.00% |           0      0.00%     50.00% |           0      0.00%     50.00% |           0      0.00%     50.00% |           0      0.00%     50.00% |           0      0.00%     50.00% |           0      0.00%     50.00% |           0      0.00%     50.00% |           0      0.00%     50.00% |           0      0.00%     50.00% |           0      0.00%     50.00% |           0      0.00%     50.00% |           0      0.00%     50.00% |           0      0.00%     50.00% |           0      0.00%     50.00% |           0      0.00%     50.00% |           0      0.00%     50.00% |           0      0.00%     50.00% |           0      0.00%     50.00% |           0      0.00%     50.00% |           0      0.00%     50.00% |           1     50.00%    100.00% |           0      0.00%    100.00% |           0      0.00%    100.00% |           0      0.00%    100.00%
system.ruby.L2Cache_Controller.MT_IIB.WB_Data::total            2                      
system.ruby.L2Cache_Controller.MT_IIB.WB_Data_clean |          25    100.00%    100.00% |           0      0.00%    100.00% |           0      0.00%    100.00% |           0      0.00%    100.00% |           0      0.00%    100.00% |           0      0.00%    100.00% |           0      0.00%    100.00% |           0      0.00%    100.00% |           0      0.00%    100.00% |           0      0.00%    100.00% |           0      0.00%    100.00% |           0      0.00%    100.00% |           0      0.00%    100.00% |           0      0.00%    100.00% |           0      0.00%    100.00% |           0      0.00%    100.00% |           0      0.00%    100.00% |           0      0.00%    100.00% |           0      0.00%    100.00% |           0      0.00%    100.00% |           0      0.00%    100.00% |           0      0.00%    100.00% |           0      0.00%    100.00% |           0      0.00%    100.00% |           0      0.00%    100.00% |           0      0.00%    100.00% |           0      0.00%    100.00% |           0      0.00%    100.00% |           0      0.00%    100.00% |           0      0.00%    100.00% |           0      0.00%    100.00% |           0      0.00%    100.00%
system.ruby.L2Cache_Controller.MT_IIB.WB_Data_clean::total           25                      
system.ruby.L2Cache_Controller.MT_SB.Unblock |          25     92.59%     92.59% |           0      0.00%     92.59% |           0      0.00%     92.59% |           0      0.00%     92.59% |           0      0.00%     92.59% |           1      3.70%     96.30% |           0      0.00%     96.30% |           0      0.00%     96.30% |           0      0.00%     96.30% |           0      0.00%     96.30% |           0      0.00%     96.30% |           0      0.00%     96.30% |           0      0.00%     96.30% |           0      0.00%     96.30% |           0      0.00%     96.30% |           0      0.00%     96.30% |           0      0.00%     96.30% |           0      0.00%     96.30% |           0      0.00%     96.30% |           0      0.00%     96.30% |           0      0.00%     96.30% |           0      0.00%     96.30% |           0      0.00%     96.30% |           0      0.00%     96.30% |           0      0.00%     96.30% |           0      0.00%     96.30% |           0      0.00%     96.30% |           0      0.00%     96.30% |           1      3.70%    100.00% |           0      0.00%    100.00% |           0      0.00%    100.00% |           0      0.00%    100.00%
system.ruby.L2Cache_Controller.MT_SB.Unblock::total           27                      
system.ruby.SimicsNetworkPortInterface_Controller.MessageSend |      109998     21.23%     21.23% |      259003     50.00%     71.23% |       18994      3.67%     74.90% |       20218      3.90%     78.80% |       18120      3.50%     82.30% |       19954      3.85%     86.15% |       18551      3.58%     89.74% |       19609      3.79%     93.52% |       16488      3.18%     96.70% |       17071      3.30%    100.00% |           0      0.00%    100.00% |           0      0.00%    100.00% |           0      0.00%    100.00% |           0      0.00%    100.00% |           0      0.00%    100.00% |           0      0.00%    100.00% |           0      0.00%    100.00% |           0      0.00%    100.00% |           0      0.00%    100.00% |           0      0.00%    100.00% |           0      0.00%    100.00% |           0      0.00%    100.00% |           0      0.00%    100.00% |           0      0.00%    100.00% |           0      0.00%    100.00% |           0      0.00%    100.00% |           0      0.00%    100.00% |           0      0.00%    100.00% |           0      0.00%    100.00% |           0      0.00%    100.00% |           0      0.00%    100.00% |           0      0.00%    100.00%
system.ruby.SimicsNetworkPortInterface_Controller.MessageSend::total       518006                      
system.ruby.SimicsNetworkPortInterface_Controller.MessageRecv |      109998     21.23%     21.23% |      259003     50.00%     71.23% |       18994      3.67%     74.90% |       20218      3.90%     78.80% |       18120      3.50%     82.30% |       19954      3.85%     86.15% |       18551      3.58%     89.74% |       19609      3.79%     93.52% |       16488      3.18%     96.70% |       17071      3.30%    100.00% |           0      0.00%    100.00% |           0      0.00%    100.00% |           0      0.00%    100.00% |           0      0.00%    100.00% |           0      0.00%    100.00% |           0      0.00%    100.00% |           0      0.00%    100.00% |           0      0.00%    100.00% |           0      0.00%    100.00% |           0      0.00%    100.00% |           0      0.00%    100.00% |           0      0.00%    100.00% |           0      0.00%    100.00% |           0      0.00%    100.00% |           0      0.00%    100.00% |           0      0.00%    100.00% |           0      0.00%    100.00% |           0      0.00%    100.00% |           0      0.00%    100.00% |           0      0.00%    100.00% |           0      0.00%    100.00% |           0      0.00%    100.00%
system.ruby.SimicsNetworkPortInterface_Controller.MessageRecv::total       518006                      
system.ruby.SimicsNetworkPortInterface_Controller.A.MessageSend |      109998     21.23%     21.23% |      259003     50.00%     71.23% |       18994      3.67%     74.90% |       20218      3.90%     78.80% |       18120      3.50%     82.30% |       19954      3.85%     86.15% |       18551      3.58%     89.74% |       19609      3.79%     93.52% |       16488      3.18%     96.70% |       17071      3.30%    100.00% |           0      0.00%    100.00% |           0      0.00%    100.00% |           0      0.00%    100.00% |           0      0.00%    100.00% |           0      0.00%    100.00% |           0      0.00%    100.00% |           0      0.00%    100.00% |           0      0.00%    100.00% |           0      0.00%    100.00% |           0      0.00%    100.00% |           0      0.00%    100.00% |           0      0.00%    100.00% |           0      0.00%    100.00% |           0      0.00%    100.00% |           0      0.00%    100.00% |           0      0.00%    100.00% |           0      0.00%    100.00% |           0      0.00%    100.00% |           0      0.00%    100.00% |           0      0.00%    100.00% |           0      0.00%    100.00% |           0      0.00%    100.00%
system.ruby.SimicsNetworkPortInterface_Controller.A.MessageSend::total       518006                      
system.ruby.SimicsNetworkPortInterface_Controller.A.MessageRecv |      109998     21.23%     21.23% |      259003     50.00%     71.23% |       18994      3.67%     74.90% |       20218      3.90%     78.80% |       18120      3.50%     82.30% |       19954      3.85%     86.15% |       18551      3.58%     89.74% |       19609      3.79%     93.52% |       16488      3.18%     96.70% |       17071      3.30%    100.00% |           0      0.00%    100.00% |           0      0.00%    100.00% |           0      0.00%    100.00% |           0      0.00%    100.00% |           0      0.00%    100.00% |           0      0.00%    100.00% |           0      0.00%    100.00% |           0      0.00%    100.00% |           0      0.00%    100.00% |           0      0.00%    100.00% |           0      0.00%    100.00% |           0      0.00%    100.00% |           0      0.00%    100.00% |           0      0.00%    100.00% |           0      0.00%    100.00% |           0      0.00%    100.00% |           0      0.00%    100.00% |           0      0.00%    100.00% |           0      0.00%    100.00% |           0      0.00%    100.00% |           0      0.00%    100.00% |           0      0.00%    100.00%
system.ruby.SimicsNetworkPortInterface_Controller.A.MessageRecv::total       518006                      
system.switch_cpus.kern.inst.arm                    0                       # number of arm instructions executed
system.switch_cpus.kern.inst.quiesce                0                       # number of quiesce instructions executed

---------- End Simulation Statistics   ----------
