
---------- Begin Simulation Statistics ----------
sim_seconds                                  0.092716                       # Number of seconds simulated
sim_ticks                                 92715985500                       # Number of ticks simulated
final_tick                               5268884064000                       # Number of ticks from beginning of simulation (restored from checkpoints and never reset)
sim_freq                                 1000000000000                       # Frequency of simulated ticks
host_inst_rate                                   4105                       # Simulator instruction rate (inst/s)
host_op_rate                                     7255                       # Simulator op (including micro ops) rate (op/s)
host_tick_rate                                9091335                       # Simulator tick rate (ticks/s)
host_mem_usage                                5792228                       # Number of bytes of host memory used
host_seconds                                 10198.28                       # Real time elapsed on the host
sim_insts                                    41860161                       # Number of instructions simulated
sim_ops                                      73991276                       # Number of ops (including micro ops) simulated
system.voltage_domain.voltage                       1                       # Voltage in Volts
system.clk_domain.clock                           500                       # Clock period in ticks
system.mem_ctrls0.bytes_read::ruby.dir_cntrl0     21142400                       # Number of bytes read from this memory
system.mem_ctrls0.bytes_read::total          21142400                       # Number of bytes read from this memory
system.mem_ctrls0.bytes_written::ruby.dir_cntrl0     11913728                       # Number of bytes written to this memory
system.mem_ctrls0.bytes_written::total       11913728                       # Number of bytes written to this memory
system.mem_ctrls0.num_reads::ruby.dir_cntrl0       330350                       # Number of read requests responded to by this memory
system.mem_ctrls0.num_reads::total             330350                       # Number of read requests responded to by this memory
system.mem_ctrls0.num_writes::ruby.dir_cntrl0       186152                       # Number of write requests responded to by this memory
system.mem_ctrls0.num_writes::total            186152                       # Number of write requests responded to by this memory
system.mem_ctrls0.bw_read::ruby.dir_cntrl0    228034032                       # Total read bandwidth from this memory (bytes/s)
system.mem_ctrls0.bw_read::total            228034032                       # Total read bandwidth from this memory (bytes/s)
system.mem_ctrls0.bw_write::ruby.dir_cntrl0    128497022                       # Write bandwidth from this memory (bytes/s)
system.mem_ctrls0.bw_write::total           128497022                       # Write bandwidth from this memory (bytes/s)
system.mem_ctrls0.bw_total::ruby.dir_cntrl0    356531054                       # Total bandwidth to/from this memory (bytes/s)
system.mem_ctrls0.bw_total::total           356531054                       # Total bandwidth to/from this memory (bytes/s)
system.mem_ctrls0.readReqs                     330350                       # Number of read requests accepted
system.mem_ctrls0.writeReqs                    186152                       # Number of write requests accepted
system.mem_ctrls0.readBursts                   330350                       # Number of DRAM read bursts, including those serviced by the write queue
system.mem_ctrls0.writeBursts                  186152                       # Number of DRAM write bursts, including those merged in the write queue
system.mem_ctrls0.bytesReadDRAM              21139712                       # Total number of bytes read from DRAM
system.mem_ctrls0.bytesReadWrQ                   2688                       # Total number of bytes read from write queue
system.mem_ctrls0.bytesWritten               11913664                       # Total number of bytes written to DRAM
system.mem_ctrls0.bytesReadSys               21142400                       # Total read bytes from the system interface side
system.mem_ctrls0.bytesWrittenSys            11913728                       # Total written bytes from the system interface side
system.mem_ctrls0.servicedByWrQ                    42                       # Number of DRAM read bursts serviced by the write queue
system.mem_ctrls0.mergedWrBursts                    0                       # Number of DRAM write bursts merged with an existing one
system.mem_ctrls0.neitherReadNorWriteReqs            0                       # Number of requests that are neither read nor write
system.mem_ctrls0.perBankRdBursts::0            20356                       # Per bank write bursts
system.mem_ctrls0.perBankRdBursts::1            21038                       # Per bank write bursts
system.mem_ctrls0.perBankRdBursts::2            20497                       # Per bank write bursts
system.mem_ctrls0.perBankRdBursts::3            20932                       # Per bank write bursts
system.mem_ctrls0.perBankRdBursts::4            20539                       # Per bank write bursts
system.mem_ctrls0.perBankRdBursts::5            21052                       # Per bank write bursts
system.mem_ctrls0.perBankRdBursts::6            20643                       # Per bank write bursts
system.mem_ctrls0.perBankRdBursts::7            20738                       # Per bank write bursts
system.mem_ctrls0.perBankRdBursts::8            20702                       # Per bank write bursts
system.mem_ctrls0.perBankRdBursts::9            20887                       # Per bank write bursts
system.mem_ctrls0.perBankRdBursts::10           20663                       # Per bank write bursts
system.mem_ctrls0.perBankRdBursts::11           20954                       # Per bank write bursts
system.mem_ctrls0.perBankRdBursts::12           20253                       # Per bank write bursts
system.mem_ctrls0.perBankRdBursts::13           20158                       # Per bank write bursts
system.mem_ctrls0.perBankRdBursts::14           20459                       # Per bank write bursts
system.mem_ctrls0.perBankRdBursts::15           20437                       # Per bank write bursts
system.mem_ctrls0.perBankWrBursts::0            11508                       # Per bank write bursts
system.mem_ctrls0.perBankWrBursts::1            11671                       # Per bank write bursts
system.mem_ctrls0.perBankWrBursts::2            11668                       # Per bank write bursts
system.mem_ctrls0.perBankWrBursts::3            11652                       # Per bank write bursts
system.mem_ctrls0.perBankWrBursts::4            11614                       # Per bank write bursts
system.mem_ctrls0.perBankWrBursts::5            11917                       # Per bank write bursts
system.mem_ctrls0.perBankWrBursts::6            11564                       # Per bank write bursts
system.mem_ctrls0.perBankWrBursts::7            11684                       # Per bank write bursts
system.mem_ctrls0.perBankWrBursts::8            11896                       # Per bank write bursts
system.mem_ctrls0.perBankWrBursts::9            11715                       # Per bank write bursts
system.mem_ctrls0.perBankWrBursts::10           11533                       # Per bank write bursts
system.mem_ctrls0.perBankWrBursts::11           11701                       # Per bank write bursts
system.mem_ctrls0.perBankWrBursts::12           11353                       # Per bank write bursts
system.mem_ctrls0.perBankWrBursts::13           11320                       # Per bank write bursts
system.mem_ctrls0.perBankWrBursts::14           11752                       # Per bank write bursts
system.mem_ctrls0.perBankWrBursts::15           11603                       # Per bank write bursts
system.mem_ctrls0.numRdRetry                     3943                       # Number of times read queue was full causing retry
system.mem_ctrls0.numWrRetry                     2242                       # Number of times write queue was full causing retry
system.mem_ctrls0.totGap                  92715422500                       # Total gap between requests
system.mem_ctrls0.readPktSize::0                    0                       # Read request sizes (log2)
system.mem_ctrls0.readPktSize::1                    0                       # Read request sizes (log2)
system.mem_ctrls0.readPktSize::2                    0                       # Read request sizes (log2)
system.mem_ctrls0.readPktSize::3                    0                       # Read request sizes (log2)
system.mem_ctrls0.readPktSize::4                    0                       # Read request sizes (log2)
system.mem_ctrls0.readPktSize::5                    0                       # Read request sizes (log2)
system.mem_ctrls0.readPktSize::6               330350                       # Read request sizes (log2)
system.mem_ctrls0.writePktSize::0                   0                       # Write request sizes (log2)
system.mem_ctrls0.writePktSize::1                   0                       # Write request sizes (log2)
system.mem_ctrls0.writePktSize::2                   0                       # Write request sizes (log2)
system.mem_ctrls0.writePktSize::3                   0                       # Write request sizes (log2)
system.mem_ctrls0.writePktSize::4                   0                       # Write request sizes (log2)
system.mem_ctrls0.writePktSize::5                   0                       # Write request sizes (log2)
system.mem_ctrls0.writePktSize::6              186152                       # Write request sizes (log2)
system.mem_ctrls0.rdQLenPdf::0                 150187                       # What read queue length does an incoming req see
system.mem_ctrls0.rdQLenPdf::1                  33472                       # What read queue length does an incoming req see
system.mem_ctrls0.rdQLenPdf::2                  26407                       # What read queue length does an incoming req see
system.mem_ctrls0.rdQLenPdf::3                  20413                       # What read queue length does an incoming req see
system.mem_ctrls0.rdQLenPdf::4                  16536                       # What read queue length does an incoming req see
system.mem_ctrls0.rdQLenPdf::5                  13237                       # What read queue length does an incoming req see
system.mem_ctrls0.rdQLenPdf::6                  10693                       # What read queue length does an incoming req see
system.mem_ctrls0.rdQLenPdf::7                   8833                       # What read queue length does an incoming req see
system.mem_ctrls0.rdQLenPdf::8                   7274                       # What read queue length does an incoming req see
system.mem_ctrls0.rdQLenPdf::9                   6163                       # What read queue length does an incoming req see
system.mem_ctrls0.rdQLenPdf::10                  5034                       # What read queue length does an incoming req see
system.mem_ctrls0.rdQLenPdf::11                  4263                       # What read queue length does an incoming req see
system.mem_ctrls0.rdQLenPdf::12                  3544                       # What read queue length does an incoming req see
system.mem_ctrls0.rdQLenPdf::13                  3009                       # What read queue length does an incoming req see
system.mem_ctrls0.rdQLenPdf::14                  2572                       # What read queue length does an incoming req see
system.mem_ctrls0.rdQLenPdf::15                  2132                       # What read queue length does an incoming req see
system.mem_ctrls0.rdQLenPdf::16                  1827                       # What read queue length does an incoming req see
system.mem_ctrls0.rdQLenPdf::17                  1563                       # What read queue length does an incoming req see
system.mem_ctrls0.rdQLenPdf::18                  1284                       # What read queue length does an incoming req see
system.mem_ctrls0.rdQLenPdf::19                  1128                       # What read queue length does an incoming req see
system.mem_ctrls0.rdQLenPdf::20                   986                       # What read queue length does an incoming req see
system.mem_ctrls0.rdQLenPdf::21                   847                       # What read queue length does an incoming req see
system.mem_ctrls0.rdQLenPdf::22                   758                       # What read queue length does an incoming req see
system.mem_ctrls0.rdQLenPdf::23                   660                       # What read queue length does an incoming req see
system.mem_ctrls0.rdQLenPdf::24                   580                       # What read queue length does an incoming req see
system.mem_ctrls0.rdQLenPdf::25                   512                       # What read queue length does an incoming req see
system.mem_ctrls0.rdQLenPdf::26                   462                       # What read queue length does an incoming req see
system.mem_ctrls0.rdQLenPdf::27                   418                       # What read queue length does an incoming req see
system.mem_ctrls0.rdQLenPdf::28                   397                       # What read queue length does an incoming req see
system.mem_ctrls0.rdQLenPdf::29                   358                       # What read queue length does an incoming req see
system.mem_ctrls0.rdQLenPdf::30                   327                       # What read queue length does an incoming req see
system.mem_ctrls0.rdQLenPdf::31                  4432                       # What read queue length does an incoming req see
system.mem_ctrls0.wrQLenPdf::0                  32737                       # What write queue length does an incoming req see
system.mem_ctrls0.wrQLenPdf::1                  35188                       # What write queue length does an incoming req see
system.mem_ctrls0.wrQLenPdf::2                  35919                       # What write queue length does an incoming req see
system.mem_ctrls0.wrQLenPdf::3                  35716                       # What write queue length does an incoming req see
system.mem_ctrls0.wrQLenPdf::4                  35248                       # What write queue length does an incoming req see
system.mem_ctrls0.wrQLenPdf::5                   4019                       # What write queue length does an incoming req see
system.mem_ctrls0.wrQLenPdf::6                   3029                       # What write queue length does an incoming req see
system.mem_ctrls0.wrQLenPdf::7                   4296                       # What write queue length does an incoming req see
system.mem_ctrls0.bytesPerActivate::samples       160169                       # Bytes accessed per row activation
system.mem_ctrls0.bytesPerActivate::mean   206.359633                       # Bytes accessed per row activation
system.mem_ctrls0.bytesPerActivate::gmean   155.924430                       # Bytes accessed per row activation
system.mem_ctrls0.bytesPerActivate::stdev   168.699084                       # Bytes accessed per row activation
system.mem_ctrls0.bytesPerActivate::0-127        52399     32.71%     32.71% # Bytes accessed per row activation
system.mem_ctrls0.bytesPerActivate::128-255        47907     29.91%     62.63% # Bytes accessed per row activation
system.mem_ctrls0.bytesPerActivate::256-383        43804     27.35%     89.97% # Bytes accessed per row activation
system.mem_ctrls0.bytesPerActivate::384-511         6602      4.12%     94.10% # Bytes accessed per row activation
system.mem_ctrls0.bytesPerActivate::512-639         4045      2.53%     96.62% # Bytes accessed per row activation
system.mem_ctrls0.bytesPerActivate::640-767         1955      1.22%     97.84% # Bytes accessed per row activation
system.mem_ctrls0.bytesPerActivate::768-895         1240      0.77%     98.62% # Bytes accessed per row activation
system.mem_ctrls0.bytesPerActivate::896-1023          802      0.50%     99.12% # Bytes accessed per row activation
system.mem_ctrls0.bytesPerActivate::1024-1151         1415      0.88%    100.00% # Bytes accessed per row activation
system.mem_ctrls0.bytesPerActivate::total       160169                       # Bytes accessed per row activation
system.mem_ctrls0.rdPerTurnAround::samples        33029                       # Reads before turning the bus around for writes
system.mem_ctrls0.rdPerTurnAround::mean     10.000272                       # Reads before turning the bus around for writes
system.mem_ctrls0.rdPerTurnAround::stdev    24.042710                       # Reads before turning the bus around for writes
system.mem_ctrls0.rdPerTurnAround::0-127        33022     99.98%     99.98% # Reads before turning the bus around for writes
system.mem_ctrls0.rdPerTurnAround::128-255            6      0.02%    100.00% # Reads before turning the bus around for writes
system.mem_ctrls0.rdPerTurnAround::3968-4095            1      0.00%    100.00% # Reads before turning the bus around for writes
system.mem_ctrls0.rdPerTurnAround::total        33029                       # Reads before turning the bus around for writes
system.mem_ctrls0.wrPerTurnAround::samples        33029                       # Writes before turning the bus around for reads
system.mem_ctrls0.wrPerTurnAround::mean      5.635987                       # Writes before turning the bus around for reads
system.mem_ctrls0.wrPerTurnAround::gmean     5.463536                       # Writes before turning the bus around for reads
system.mem_ctrls0.wrPerTurnAround::stdev     1.801679                       # Writes before turning the bus around for reads
system.mem_ctrls0.wrPerTurnAround::4-7          30256     91.60%     91.60% # Writes before turning the bus around for reads
system.mem_ctrls0.wrPerTurnAround::8-11          1902      5.76%     97.36% # Writes before turning the bus around for reads
system.mem_ctrls0.wrPerTurnAround::12-15          481      1.46%     98.82% # Writes before turning the bus around for reads
system.mem_ctrls0.wrPerTurnAround::16-19          390      1.18%    100.00% # Writes before turning the bus around for reads
system.mem_ctrls0.wrPerTurnAround::total        33029                       # Writes before turning the bus around for reads
system.mem_ctrls0.totQLat                 15153216703                       # Total ticks spent queuing
system.mem_ctrls0.totMemAccLat            21346491703                       # Total ticks spent from burst creation until serviced by the DRAM
system.mem_ctrls0.totBusLat                1651540000                       # Total ticks spent in databus transfers
system.mem_ctrls0.avgQLat                    45876.02                       # Average queueing delay per DRAM burst
system.mem_ctrls0.avgBusLat                   5000.00                       # Average bus latency per DRAM burst
system.mem_ctrls0.avgMemAccLat               64626.02                       # Average memory access latency per DRAM burst
system.mem_ctrls0.avgRdBW                      228.01                       # Average DRAM read bandwidth in MiByte/s
system.mem_ctrls0.avgWrBW                      128.50                       # Average achieved write bandwidth in MiByte/s
system.mem_ctrls0.avgRdBWSys                   228.03                       # Average system read bandwidth in MiByte/s
system.mem_ctrls0.avgWrBWSys                   128.50                       # Average system write bandwidth in MiByte/s
system.mem_ctrls0.peakBW                     12800.00                       # Theoretical peak bandwidth in MiByte/s
system.mem_ctrls0.busUtil                        2.79                       # Data bus utilization in percentage
system.mem_ctrls0.busUtilRead                    1.78                       # Data bus utilization in percentage for reads
system.mem_ctrls0.busUtilWrite                   1.00                       # Data bus utilization in percentage for writes
system.mem_ctrls0.avgRdQLen                      1.24                       # Average read queue length when enqueuing
system.mem_ctrls0.avgWrQLen                      2.96                       # Average write queue length when enqueuing
system.mem_ctrls0.readRowHits                  245600                       # Number of row buffer hits during reads
system.mem_ctrls0.writeRowHits                 110678                       # Number of row buffer hits during writes
system.mem_ctrls0.readRowHitRate                74.35                       # Row buffer hit rate for reads
system.mem_ctrls0.writeRowHitRate               59.46                       # Row buffer hit rate for writes
system.mem_ctrls0.avgGap                    179506.42                       # Average gap between requests
system.mem_ctrls0.pageHitRate                   68.98                       # Row buffer hit rate, read and write combined
system.mem_ctrls0.memoryStateTime::IDLE   15193820250                       # Time in different power states
system.mem_ctrls0.memoryStateTime::REF     3095820000                       # Time in different power states
system.mem_ctrls0.memoryStateTime::PRE_PDN            0                       # Time in different power states
system.mem_ctrls0.memoryStateTime::ACT    74423263250                       # Time in different power states
system.mem_ctrls0.memoryStateTime::ACT_PDN            0                       # Time in different power states
system.mem_ctrls0.actEnergy::0              609993720                       # Energy for activate commands per rank (pJ)
system.mem_ctrls0.actEnergy::1              600823440                       # Energy for activate commands per rank (pJ)
system.mem_ctrls0.preEnergy::0              332833875                       # Energy for precharge commands per rank (pJ)
system.mem_ctrls0.preEnergy::1              327830250                       # Energy for precharge commands per rank (pJ)
system.mem_ctrls0.readEnergy::0            1293123000                       # Energy for read commands per rank (pJ)
system.mem_ctrls0.readEnergy::1            1283131200                       # Energy for read commands per rank (pJ)
system.mem_ctrls0.writeEnergy::0            604434960                       # Energy for write commands per rank (pJ)
system.mem_ctrls0.writeEnergy::1            601791120                       # Energy for write commands per rank (pJ)
system.mem_ctrls0.refreshEnergy::0         6055423920                       # Energy for refresh commands per rank (pJ)
system.mem_ctrls0.refreshEnergy::1         6055423920                       # Energy for refresh commands per rank (pJ)
system.mem_ctrls0.actBackEnergy::0        38471241420                       # Energy for active background per rank (pJ)
system.mem_ctrls0.actBackEnergy::1        37753805790                       # Energy for active background per rank (pJ)
system.mem_ctrls0.preBackEnergy::0        21879980250                       # Energy for precharge background per rank (pJ)
system.mem_ctrls0.preBackEnergy::1        22509309750                       # Energy for precharge background per rank (pJ)
system.mem_ctrls0.totalEnergy::0          69247031145                       # Total energy per rank (pJ)
system.mem_ctrls0.totalEnergy::1          69132115470                       # Total energy per rank (pJ)
system.mem_ctrls0.averagePower::0          746.911666                       # Core power per rank (mW)
system.mem_ctrls0.averagePower::1          745.672164                       # Core power per rank (mW)
system.mem_ctrls1.bytes_read::ruby.dir_cntrl1     20717504                       # Number of bytes read from this memory
system.mem_ctrls1.bytes_read::total          20717504                       # Number of bytes read from this memory
system.mem_ctrls1.bytes_written::ruby.dir_cntrl1     11494784                       # Number of bytes written to this memory
system.mem_ctrls1.bytes_written::total       11494784                       # Number of bytes written to this memory
system.mem_ctrls1.num_reads::ruby.dir_cntrl1       323711                       # Number of read requests responded to by this memory
system.mem_ctrls1.num_reads::total             323711                       # Number of read requests responded to by this memory
system.mem_ctrls1.num_writes::ruby.dir_cntrl1       179606                       # Number of write requests responded to by this memory
system.mem_ctrls1.num_writes::total            179606                       # Number of write requests responded to by this memory
system.mem_ctrls1.bw_read::ruby.dir_cntrl1    223451262                       # Total read bandwidth from this memory (bytes/s)
system.mem_ctrls1.bw_read::total            223451262                       # Total read bandwidth from this memory (bytes/s)
system.mem_ctrls1.bw_write::ruby.dir_cntrl1    123978448                       # Write bandwidth from this memory (bytes/s)
system.mem_ctrls1.bw_write::total           123978448                       # Write bandwidth from this memory (bytes/s)
system.mem_ctrls1.bw_total::ruby.dir_cntrl1    347429710                       # Total bandwidth to/from this memory (bytes/s)
system.mem_ctrls1.bw_total::total           347429710                       # Total bandwidth to/from this memory (bytes/s)
system.mem_ctrls1.readReqs                     323711                       # Number of read requests accepted
system.mem_ctrls1.writeReqs                    179606                       # Number of write requests accepted
system.mem_ctrls1.readBursts                   323711                       # Number of DRAM read bursts, including those serviced by the write queue
system.mem_ctrls1.writeBursts                  179606                       # Number of DRAM write bursts, including those merged in the write queue
system.mem_ctrls1.bytesReadDRAM              20715456                       # Total number of bytes read from DRAM
system.mem_ctrls1.bytesReadWrQ                   2048                       # Total number of bytes read from write queue
system.mem_ctrls1.bytesWritten               11494784                       # Total number of bytes written to DRAM
system.mem_ctrls1.bytesReadSys               20717504                       # Total read bytes from the system interface side
system.mem_ctrls1.bytesWrittenSys            11494784                       # Total written bytes from the system interface side
system.mem_ctrls1.servicedByWrQ                    32                       # Number of DRAM read bursts serviced by the write queue
system.mem_ctrls1.mergedWrBursts                    0                       # Number of DRAM write bursts merged with an existing one
system.mem_ctrls1.neitherReadNorWriteReqs            0                       # Number of requests that are neither read nor write
system.mem_ctrls1.perBankRdBursts::0            19959                       # Per bank write bursts
system.mem_ctrls1.perBankRdBursts::1            20588                       # Per bank write bursts
system.mem_ctrls1.perBankRdBursts::2            20096                       # Per bank write bursts
system.mem_ctrls1.perBankRdBursts::3            20491                       # Per bank write bursts
system.mem_ctrls1.perBankRdBursts::4            20161                       # Per bank write bursts
system.mem_ctrls1.perBankRdBursts::5            20631                       # Per bank write bursts
system.mem_ctrls1.perBankRdBursts::6            20251                       # Per bank write bursts
system.mem_ctrls1.perBankRdBursts::7            20434                       # Per bank write bursts
system.mem_ctrls1.perBankRdBursts::8            20268                       # Per bank write bursts
system.mem_ctrls1.perBankRdBursts::9            20471                       # Per bank write bursts
system.mem_ctrls1.perBankRdBursts::10           20234                       # Per bank write bursts
system.mem_ctrls1.perBankRdBursts::11           20540                       # Per bank write bursts
system.mem_ctrls1.perBankRdBursts::12           19825                       # Per bank write bursts
system.mem_ctrls1.perBankRdBursts::13           19756                       # Per bank write bursts
system.mem_ctrls1.perBankRdBursts::14           19954                       # Per bank write bursts
system.mem_ctrls1.perBankRdBursts::15           20020                       # Per bank write bursts
system.mem_ctrls1.perBankWrBursts::0            11111                       # Per bank write bursts
system.mem_ctrls1.perBankWrBursts::1            11262                       # Per bank write bursts
system.mem_ctrls1.perBankWrBursts::2            11271                       # Per bank write bursts
system.mem_ctrls1.perBankWrBursts::3            11244                       # Per bank write bursts
system.mem_ctrls1.perBankWrBursts::4            11219                       # Per bank write bursts
system.mem_ctrls1.perBankWrBursts::5            11529                       # Per bank write bursts
system.mem_ctrls1.perBankWrBursts::6            11141                       # Per bank write bursts
system.mem_ctrls1.perBankWrBursts::7            11266                       # Per bank write bursts
system.mem_ctrls1.perBankWrBursts::8            11487                       # Per bank write bursts
system.mem_ctrls1.perBankWrBursts::9            11297                       # Per bank write bursts
system.mem_ctrls1.perBankWrBursts::10           11128                       # Per bank write bursts
system.mem_ctrls1.perBankWrBursts::11           11296                       # Per bank write bursts
system.mem_ctrls1.perBankWrBursts::12           10948                       # Per bank write bursts
system.mem_ctrls1.perBankWrBursts::13           10912                       # Per bank write bursts
system.mem_ctrls1.perBankWrBursts::14           11292                       # Per bank write bursts
system.mem_ctrls1.perBankWrBursts::15           11203                       # Per bank write bursts
system.mem_ctrls1.numRdRetry                     2948                       # Number of times read queue was full causing retry
system.mem_ctrls1.numWrRetry                     1972                       # Number of times write queue was full causing retry
system.mem_ctrls1.totGap                  92715151500                       # Total gap between requests
system.mem_ctrls1.readPktSize::0                    0                       # Read request sizes (log2)
system.mem_ctrls1.readPktSize::1                    0                       # Read request sizes (log2)
system.mem_ctrls1.readPktSize::2                    0                       # Read request sizes (log2)
system.mem_ctrls1.readPktSize::3                    0                       # Read request sizes (log2)
system.mem_ctrls1.readPktSize::4                    0                       # Read request sizes (log2)
system.mem_ctrls1.readPktSize::5                    0                       # Read request sizes (log2)
system.mem_ctrls1.readPktSize::6               323711                       # Read request sizes (log2)
system.mem_ctrls1.writePktSize::0                   0                       # Write request sizes (log2)
system.mem_ctrls1.writePktSize::1                   0                       # Write request sizes (log2)
system.mem_ctrls1.writePktSize::2                   0                       # Write request sizes (log2)
system.mem_ctrls1.writePktSize::3                   0                       # Write request sizes (log2)
system.mem_ctrls1.writePktSize::4                   0                       # Write request sizes (log2)
system.mem_ctrls1.writePktSize::5                   0                       # Write request sizes (log2)
system.mem_ctrls1.writePktSize::6              179606                       # Write request sizes (log2)
system.mem_ctrls1.rdQLenPdf::0                 147449                       # What read queue length does an incoming req see
system.mem_ctrls1.rdQLenPdf::1                  31110                       # What read queue length does an incoming req see
system.mem_ctrls1.rdQLenPdf::2                  25696                       # What read queue length does an incoming req see
system.mem_ctrls1.rdQLenPdf::3                  20819                       # What read queue length does an incoming req see
system.mem_ctrls1.rdQLenPdf::4                  16549                       # What read queue length does an incoming req see
system.mem_ctrls1.rdQLenPdf::5                  13654                       # What read queue length does an incoming req see
system.mem_ctrls1.rdQLenPdf::6                  10832                       # What read queue length does an incoming req see
system.mem_ctrls1.rdQLenPdf::7                   8938                       # What read queue length does an incoming req see
system.mem_ctrls1.rdQLenPdf::8                   7281                       # What read queue length does an incoming req see
system.mem_ctrls1.rdQLenPdf::9                   5970                       # What read queue length does an incoming req see
system.mem_ctrls1.rdQLenPdf::10                  5005                       # What read queue length does an incoming req see
system.mem_ctrls1.rdQLenPdf::11                  4129                       # What read queue length does an incoming req see
system.mem_ctrls1.rdQLenPdf::12                  3422                       # What read queue length does an incoming req see
system.mem_ctrls1.rdQLenPdf::13                  2875                       # What read queue length does an incoming req see
system.mem_ctrls1.rdQLenPdf::14                  2468                       # What read queue length does an incoming req see
system.mem_ctrls1.rdQLenPdf::15                  2125                       # What read queue length does an incoming req see
system.mem_ctrls1.rdQLenPdf::16                  1810                       # What read queue length does an incoming req see
system.mem_ctrls1.rdQLenPdf::17                  1518                       # What read queue length does an incoming req see
system.mem_ctrls1.rdQLenPdf::18                  1298                       # What read queue length does an incoming req see
system.mem_ctrls1.rdQLenPdf::19                  1100                       # What read queue length does an incoming req see
system.mem_ctrls1.rdQLenPdf::20                   963                       # What read queue length does an incoming req see
system.mem_ctrls1.rdQLenPdf::21                   859                       # What read queue length does an incoming req see
system.mem_ctrls1.rdQLenPdf::22                   759                       # What read queue length does an incoming req see
system.mem_ctrls1.rdQLenPdf::23                   644                       # What read queue length does an incoming req see
system.mem_ctrls1.rdQLenPdf::24                   585                       # What read queue length does an incoming req see
system.mem_ctrls1.rdQLenPdf::25                   515                       # What read queue length does an incoming req see
system.mem_ctrls1.rdQLenPdf::26                   442                       # What read queue length does an incoming req see
system.mem_ctrls1.rdQLenPdf::27                   441                       # What read queue length does an incoming req see
system.mem_ctrls1.rdQLenPdf::28                   377                       # What read queue length does an incoming req see
system.mem_ctrls1.rdQLenPdf::29                   336                       # What read queue length does an incoming req see
system.mem_ctrls1.rdQLenPdf::30                   343                       # What read queue length does an incoming req see
system.mem_ctrls1.rdQLenPdf::31                  3367                       # What read queue length does an incoming req see
system.mem_ctrls1.wrQLenPdf::0                  31626                       # What write queue length does an incoming req see
system.mem_ctrls1.wrQLenPdf::1                  33906                       # What write queue length does an incoming req see
system.mem_ctrls1.wrQLenPdf::2                  34521                       # What write queue length does an incoming req see
system.mem_ctrls1.wrQLenPdf::3                  34581                       # What write queue length does an incoming req see
system.mem_ctrls1.wrQLenPdf::4                  34229                       # What write queue length does an incoming req see
system.mem_ctrls1.wrQLenPdf::5                   4121                       # What write queue length does an incoming req see
system.mem_ctrls1.wrQLenPdf::6                   2931                       # What write queue length does an incoming req see
system.mem_ctrls1.wrQLenPdf::7                   3691                       # What write queue length does an incoming req see
system.mem_ctrls1.bytesPerActivate::samples       151208                       # Bytes accessed per row activation
system.mem_ctrls1.bytesPerActivate::mean   213.013915                       # Bytes accessed per row activation
system.mem_ctrls1.bytesPerActivate::gmean   160.488049                       # Bytes accessed per row activation
system.mem_ctrls1.bytesPerActivate::stdev   173.091446                       # Bytes accessed per row activation
system.mem_ctrls1.bytesPerActivate::0-127        47946     31.71%     31.71% # Bytes accessed per row activation
system.mem_ctrls1.bytesPerActivate::128-255        43224     28.59%     60.29% # Bytes accessed per row activation
system.mem_ctrls1.bytesPerActivate::256-383        43762     28.94%     89.24% # Bytes accessed per row activation
system.mem_ctrls1.bytesPerActivate::384-511         6676      4.42%     93.65% # Bytes accessed per row activation
system.mem_ctrls1.bytesPerActivate::512-639         3965      2.62%     96.27% # Bytes accessed per row activation
system.mem_ctrls1.bytesPerActivate::640-767         2050      1.36%     97.63% # Bytes accessed per row activation
system.mem_ctrls1.bytesPerActivate::768-895         1283      0.85%     98.48% # Bytes accessed per row activation
system.mem_ctrls1.bytesPerActivate::896-1023          849      0.56%     99.04% # Bytes accessed per row activation
system.mem_ctrls1.bytesPerActivate::1024-1151         1453      0.96%    100.00% # Bytes accessed per row activation
system.mem_ctrls1.bytesPerActivate::total       151208                       # Bytes accessed per row activation
system.mem_ctrls1.rdPerTurnAround::samples        31896                       # Reads before turning the bus around for writes
system.mem_ctrls1.rdPerTurnAround::mean     10.147918                       # Reads before turning the bus around for writes
system.mem_ctrls1.rdPerTurnAround::stdev    20.130049                       # Reads before turning the bus around for writes
system.mem_ctrls1.rdPerTurnAround::0-127        31890     99.98%     99.98% # Reads before turning the bus around for writes
system.mem_ctrls1.rdPerTurnAround::128-255            4      0.01%     99.99% # Reads before turning the bus around for writes
system.mem_ctrls1.rdPerTurnAround::1152-1279            1      0.00%    100.00% # Reads before turning the bus around for writes
system.mem_ctrls1.rdPerTurnAround::2816-2943            1      0.00%    100.00% # Reads before turning the bus around for writes
system.mem_ctrls1.rdPerTurnAround::total        31896                       # Reads before turning the bus around for writes
system.mem_ctrls1.wrPerTurnAround::samples        31896                       # Writes before turning the bus around for reads
system.mem_ctrls1.wrPerTurnAround::mean      5.630988                       # Writes before turning the bus around for reads
system.mem_ctrls1.wrPerTurnAround::gmean     5.458792                       # Writes before turning the bus around for reads
system.mem_ctrls1.wrPerTurnAround::stdev     1.792782                       # Writes before turning the bus around for reads
system.mem_ctrls1.wrPerTurnAround::4-7          29177     91.48%     91.48% # Writes before turning the bus around for reads
system.mem_ctrls1.wrPerTurnAround::8-11          1890      5.93%     97.40% # Writes before turning the bus around for reads
system.mem_ctrls1.wrPerTurnAround::12-15          486      1.52%     98.92% # Writes before turning the bus around for reads
system.mem_ctrls1.wrPerTurnAround::16-19          343      1.08%    100.00% # Writes before turning the bus around for reads
system.mem_ctrls1.wrPerTurnAround::total        31896                       # Writes before turning the bus around for reads
system.mem_ctrls1.totQLat                 14404119544                       # Total ticks spent queuing
system.mem_ctrls1.totMemAccLat            20473100794                       # Total ticks spent from burst creation until serviced by the DRAM
system.mem_ctrls1.totBusLat                1618395000                       # Total ticks spent in databus transfers
system.mem_ctrls1.avgQLat                    44501.25                       # Average queueing delay per DRAM burst
system.mem_ctrls1.avgBusLat                   5000.00                       # Average bus latency per DRAM burst
system.mem_ctrls1.avgMemAccLat               63251.25                       # Average memory access latency per DRAM burst
system.mem_ctrls1.avgRdBW                      223.43                       # Average DRAM read bandwidth in MiByte/s
system.mem_ctrls1.avgWrBW                      123.98                       # Average achieved write bandwidth in MiByte/s
system.mem_ctrls1.avgRdBWSys                   223.45                       # Average system read bandwidth in MiByte/s
system.mem_ctrls1.avgWrBWSys                   123.98                       # Average system write bandwidth in MiByte/s
system.mem_ctrls1.peakBW                     12800.00                       # Theoretical peak bandwidth in MiByte/s
system.mem_ctrls1.busUtil                        2.71                       # Data bus utilization in percentage
system.mem_ctrls1.busUtilRead                    1.75                       # Data bus utilization in percentage for reads
system.mem_ctrls1.busUtilWrite                   0.97                       # Data bus utilization in percentage for writes
system.mem_ctrls1.avgRdQLen                      1.22                       # Average read queue length when enqueuing
system.mem_ctrls1.avgWrQLen                      2.97                       # Average write queue length when enqueuing
system.mem_ctrls1.readRowHits                  242564                       # Number of row buffer hits during reads
system.mem_ctrls1.writeRowHits                 109503                       # Number of row buffer hits during writes
system.mem_ctrls1.readRowHitRate                74.94                       # Row buffer hit rate for reads
system.mem_ctrls1.writeRowHitRate               60.97                       # Row buffer hit rate for writes
system.mem_ctrls1.avgGap                    184208.27                       # Average gap between requests
system.mem_ctrls1.pageHitRate                   69.95                       # Row buffer hit rate, read and write combined
system.mem_ctrls1.memoryStateTime::IDLE   15394120000                       # Time in different power states
system.mem_ctrls1.memoryStateTime::REF     3095820000                       # Time in different power states
system.mem_ctrls1.memoryStateTime::PRE_PDN            0                       # Time in different power states
system.mem_ctrls1.memoryStateTime::ACT    74222625000                       # Time in different power states
system.mem_ctrls1.memoryStateTime::ACT_PDN            0                       # Time in different power states
system.mem_ctrls1.actEnergy::0              576019080                       # Energy for activate commands per rank (pJ)
system.mem_ctrls1.actEnergy::1              567083160                       # Energy for activate commands per rank (pJ)
system.mem_ctrls1.preEnergy::0              314296125                       # Energy for precharge commands per rank (pJ)
system.mem_ctrls1.preEnergy::1              309420375                       # Energy for precharge commands per rank (pJ)
system.mem_ctrls1.readEnergy::0            1268272200                       # Energy for read commands per rank (pJ)
system.mem_ctrls1.readEnergy::1            1256291400                       # Energy for read commands per rank (pJ)
system.mem_ctrls1.writeEnergy::0            583465680                       # Energy for write commands per rank (pJ)
system.mem_ctrls1.writeEnergy::1            580348800                       # Energy for write commands per rank (pJ)
system.mem_ctrls1.refreshEnergy::0         6055423920                       # Energy for refresh commands per rank (pJ)
system.mem_ctrls1.refreshEnergy::1         6055423920                       # Energy for refresh commands per rank (pJ)
system.mem_ctrls1.actBackEnergy::0        37965508920                       # Energy for active background per rank (pJ)
system.mem_ctrls1.actBackEnergy::1        37007669520                       # Energy for active background per rank (pJ)
system.mem_ctrls1.preBackEnergy::0        22323605250                       # Energy for precharge background per rank (pJ)
system.mem_ctrls1.preBackEnergy::1        23163815250                       # Energy for precharge background per rank (pJ)
system.mem_ctrls1.totalEnergy::0          69086591175                       # Total energy per rank (pJ)
system.mem_ctrls1.totalEnergy::1          68940052425                       # Total energy per rank (pJ)
system.mem_ctrls1.averagePower::0          745.181130                       # Core power per rank (mW)
system.mem_ctrls1.averagePower::1          743.600536                       # Core power per rank (mW)
system.mem_ctrls2.bytes_read::ruby.dir_cntrl2     20724480                       # Number of bytes read from this memory
system.mem_ctrls2.bytes_read::total          20724480                       # Number of bytes read from this memory
system.mem_ctrls2.bytes_written::ruby.dir_cntrl2     11493760                       # Number of bytes written to this memory
system.mem_ctrls2.bytes_written::total       11493760                       # Number of bytes written to this memory
system.mem_ctrls2.num_reads::ruby.dir_cntrl2       323820                       # Number of read requests responded to by this memory
system.mem_ctrls2.num_reads::total             323820                       # Number of read requests responded to by this memory
system.mem_ctrls2.num_writes::ruby.dir_cntrl2       179590                       # Number of write requests responded to by this memory
system.mem_ctrls2.num_writes::total            179590                       # Number of write requests responded to by this memory
system.mem_ctrls2.bw_read::ruby.dir_cntrl2    223526503                       # Total read bandwidth from this memory (bytes/s)
system.mem_ctrls2.bw_read::total            223526503                       # Total read bandwidth from this memory (bytes/s)
system.mem_ctrls2.bw_write::ruby.dir_cntrl2    123967404                       # Write bandwidth from this memory (bytes/s)
system.mem_ctrls2.bw_write::total           123967404                       # Write bandwidth from this memory (bytes/s)
system.mem_ctrls2.bw_total::ruby.dir_cntrl2    347493907                       # Total bandwidth to/from this memory (bytes/s)
system.mem_ctrls2.bw_total::total           347493907                       # Total bandwidth to/from this memory (bytes/s)
system.mem_ctrls2.readReqs                     323820                       # Number of read requests accepted
system.mem_ctrls2.writeReqs                    179590                       # Number of write requests accepted
system.mem_ctrls2.readBursts                   323820                       # Number of DRAM read bursts, including those serviced by the write queue
system.mem_ctrls2.writeBursts                  179590                       # Number of DRAM write bursts, including those merged in the write queue
system.mem_ctrls2.bytesReadDRAM              20723520                       # Total number of bytes read from DRAM
system.mem_ctrls2.bytesReadWrQ                    960                       # Total number of bytes read from write queue
system.mem_ctrls2.bytesWritten               11493760                       # Total number of bytes written to DRAM
system.mem_ctrls2.bytesReadSys               20724480                       # Total read bytes from the system interface side
system.mem_ctrls2.bytesWrittenSys            11493760                       # Total written bytes from the system interface side
system.mem_ctrls2.servicedByWrQ                    15                       # Number of DRAM read bursts serviced by the write queue
system.mem_ctrls2.mergedWrBursts                    0                       # Number of DRAM write bursts merged with an existing one
system.mem_ctrls2.neitherReadNorWriteReqs            0                       # Number of requests that are neither read nor write
system.mem_ctrls2.perBankRdBursts::0            19968                       # Per bank write bursts
system.mem_ctrls2.perBankRdBursts::1            20615                       # Per bank write bursts
system.mem_ctrls2.perBankRdBursts::2            20160                       # Per bank write bursts
system.mem_ctrls2.perBankRdBursts::3            20515                       # Per bank write bursts
system.mem_ctrls2.perBankRdBursts::4            20174                       # Per bank write bursts
system.mem_ctrls2.perBankRdBursts::5            20617                       # Per bank write bursts
system.mem_ctrls2.perBankRdBursts::6            20242                       # Per bank write bursts
system.mem_ctrls2.perBankRdBursts::7            20353                       # Per bank write bursts
system.mem_ctrls2.perBankRdBursts::8            20233                       # Per bank write bursts
system.mem_ctrls2.perBankRdBursts::9            20500                       # Per bank write bursts
system.mem_ctrls2.perBankRdBursts::10           20222                       # Per bank write bursts
system.mem_ctrls2.perBankRdBursts::11           20583                       # Per bank write bursts
system.mem_ctrls2.perBankRdBursts::12           19856                       # Per bank write bursts
system.mem_ctrls2.perBankRdBursts::13           19710                       # Per bank write bursts
system.mem_ctrls2.perBankRdBursts::14           19970                       # Per bank write bursts
system.mem_ctrls2.perBankRdBursts::15           20087                       # Per bank write bursts
system.mem_ctrls2.perBankWrBursts::0            11116                       # Per bank write bursts
system.mem_ctrls2.perBankWrBursts::1            11255                       # Per bank write bursts
system.mem_ctrls2.perBankWrBursts::2            11266                       # Per bank write bursts
system.mem_ctrls2.perBankWrBursts::3            11272                       # Per bank write bursts
system.mem_ctrls2.perBankWrBursts::4            11207                       # Per bank write bursts
system.mem_ctrls2.perBankWrBursts::5            11511                       # Per bank write bursts
system.mem_ctrls2.perBankWrBursts::6            11156                       # Per bank write bursts
system.mem_ctrls2.perBankWrBursts::7            11264                       # Per bank write bursts
system.mem_ctrls2.perBankWrBursts::8            11459                       # Per bank write bursts
system.mem_ctrls2.perBankWrBursts::9            11312                       # Per bank write bursts
system.mem_ctrls2.perBankWrBursts::10           11108                       # Per bank write bursts
system.mem_ctrls2.perBankWrBursts::11           11311                       # Per bank write bursts
system.mem_ctrls2.perBankWrBursts::12           10954                       # Per bank write bursts
system.mem_ctrls2.perBankWrBursts::13           10898                       # Per bank write bursts
system.mem_ctrls2.perBankWrBursts::14           11296                       # Per bank write bursts
system.mem_ctrls2.perBankWrBursts::15           11205                       # Per bank write bursts
system.mem_ctrls2.numRdRetry                     3177                       # Number of times read queue was full causing retry
system.mem_ctrls2.numWrRetry                     2084                       # Number of times write queue was full causing retry
system.mem_ctrls2.totGap                  92715844000                       # Total gap between requests
system.mem_ctrls2.readPktSize::0                    0                       # Read request sizes (log2)
system.mem_ctrls2.readPktSize::1                    0                       # Read request sizes (log2)
system.mem_ctrls2.readPktSize::2                    0                       # Read request sizes (log2)
system.mem_ctrls2.readPktSize::3                    0                       # Read request sizes (log2)
system.mem_ctrls2.readPktSize::4                    0                       # Read request sizes (log2)
system.mem_ctrls2.readPktSize::5                    0                       # Read request sizes (log2)
system.mem_ctrls2.readPktSize::6               323820                       # Read request sizes (log2)
system.mem_ctrls2.writePktSize::0                   0                       # Write request sizes (log2)
system.mem_ctrls2.writePktSize::1                   0                       # Write request sizes (log2)
system.mem_ctrls2.writePktSize::2                   0                       # Write request sizes (log2)
system.mem_ctrls2.writePktSize::3                   0                       # Write request sizes (log2)
system.mem_ctrls2.writePktSize::4                   0                       # Write request sizes (log2)
system.mem_ctrls2.writePktSize::5                   0                       # Write request sizes (log2)
system.mem_ctrls2.writePktSize::6              179590                       # Write request sizes (log2)
system.mem_ctrls2.rdQLenPdf::0                 147595                       # What read queue length does an incoming req see
system.mem_ctrls2.rdQLenPdf::1                  30986                       # What read queue length does an incoming req see
system.mem_ctrls2.rdQLenPdf::2                  25756                       # What read queue length does an incoming req see
system.mem_ctrls2.rdQLenPdf::3                  20802                       # What read queue length does an incoming req see
system.mem_ctrls2.rdQLenPdf::4                  16466                       # What read queue length does an incoming req see
system.mem_ctrls2.rdQLenPdf::5                  13377                       # What read queue length does an incoming req see
system.mem_ctrls2.rdQLenPdf::6                  10880                       # What read queue length does an incoming req see
system.mem_ctrls2.rdQLenPdf::7                   8786                       # What read queue length does an incoming req see
system.mem_ctrls2.rdQLenPdf::8                   7087                       # What read queue length does an incoming req see
system.mem_ctrls2.rdQLenPdf::9                   6046                       # What read queue length does an incoming req see
system.mem_ctrls2.rdQLenPdf::10                  4893                       # What read queue length does an incoming req see
system.mem_ctrls2.rdQLenPdf::11                  4156                       # What read queue length does an incoming req see
system.mem_ctrls2.rdQLenPdf::12                  3446                       # What read queue length does an incoming req see
system.mem_ctrls2.rdQLenPdf::13                  2965                       # What read queue length does an incoming req see
system.mem_ctrls2.rdQLenPdf::14                  2535                       # What read queue length does an incoming req see
system.mem_ctrls2.rdQLenPdf::15                  2147                       # What read queue length does an incoming req see
system.mem_ctrls2.rdQLenPdf::16                  1842                       # What read queue length does an incoming req see
system.mem_ctrls2.rdQLenPdf::17                  1573                       # What read queue length does an incoming req see
system.mem_ctrls2.rdQLenPdf::18                  1358                       # What read queue length does an incoming req see
system.mem_ctrls2.rdQLenPdf::19                  1110                       # What read queue length does an incoming req see
system.mem_ctrls2.rdQLenPdf::20                  1028                       # What read queue length does an incoming req see
system.mem_ctrls2.rdQLenPdf::21                   850                       # What read queue length does an incoming req see
system.mem_ctrls2.rdQLenPdf::22                   769                       # What read queue length does an incoming req see
system.mem_ctrls2.rdQLenPdf::23                   660                       # What read queue length does an incoming req see
system.mem_ctrls2.rdQLenPdf::24                   564                       # What read queue length does an incoming req see
system.mem_ctrls2.rdQLenPdf::25                   501                       # What read queue length does an incoming req see
system.mem_ctrls2.rdQLenPdf::26                   448                       # What read queue length does an incoming req see
system.mem_ctrls2.rdQLenPdf::27                   407                       # What read queue length does an incoming req see
system.mem_ctrls2.rdQLenPdf::28                   370                       # What read queue length does an incoming req see
system.mem_ctrls2.rdQLenPdf::29                   361                       # What read queue length does an incoming req see
system.mem_ctrls2.rdQLenPdf::30                   383                       # What read queue length does an incoming req see
system.mem_ctrls2.rdQLenPdf::31                  3658                       # What read queue length does an incoming req see
system.mem_ctrls2.wrQLenPdf::0                  31622                       # What write queue length does an incoming req see
system.mem_ctrls2.wrQLenPdf::1                  33913                       # What write queue length does an incoming req see
system.mem_ctrls2.wrQLenPdf::2                  34420                       # What write queue length does an incoming req see
system.mem_ctrls2.wrQLenPdf::3                  34587                       # What write queue length does an incoming req see
system.mem_ctrls2.wrQLenPdf::4                  34241                       # What write queue length does an incoming req see
system.mem_ctrls2.wrQLenPdf::5                   3968                       # What write queue length does an incoming req see
system.mem_ctrls2.wrQLenPdf::6                   2943                       # What write queue length does an incoming req see
system.mem_ctrls2.wrQLenPdf::7                   3896                       # What write queue length does an incoming req see
system.mem_ctrls2.bytesPerActivate::samples       151223                       # Bytes accessed per row activation
system.mem_ctrls2.bytesPerActivate::mean   213.040186                       # Bytes accessed per row activation
system.mem_ctrls2.bytesPerActivate::gmean   160.616669                       # Bytes accessed per row activation
system.mem_ctrls2.bytesPerActivate::stdev   172.640723                       # Bytes accessed per row activation
system.mem_ctrls2.bytesPerActivate::0-127        47990     31.73%     31.73% # Bytes accessed per row activation
system.mem_ctrls2.bytesPerActivate::128-255        42808     28.31%     60.04% # Bytes accessed per row activation
system.mem_ctrls2.bytesPerActivate::256-383        44251     29.26%     89.30% # Bytes accessed per row activation
system.mem_ctrls2.bytesPerActivate::384-511         6579      4.35%     93.66% # Bytes accessed per row activation
system.mem_ctrls2.bytesPerActivate::512-639         3979      2.63%     96.29% # Bytes accessed per row activation
system.mem_ctrls2.bytesPerActivate::640-767         2102      1.39%     97.68% # Bytes accessed per row activation
system.mem_ctrls2.bytesPerActivate::768-895         1245      0.82%     98.50% # Bytes accessed per row activation
system.mem_ctrls2.bytesPerActivate::896-1023          828      0.55%     99.05% # Bytes accessed per row activation
system.mem_ctrls2.bytesPerActivate::1024-1151         1441      0.95%    100.00% # Bytes accessed per row activation
system.mem_ctrls2.bytesPerActivate::total       151223                       # Bytes accessed per row activation
system.mem_ctrls2.rdPerTurnAround::samples        31894                       # Reads before turning the bus around for writes
system.mem_ctrls2.rdPerTurnAround::mean     10.152442                       # Reads before turning the bus around for writes
system.mem_ctrls2.rdPerTurnAround::stdev    20.144342                       # Reads before turning the bus around for writes
system.mem_ctrls2.rdPerTurnAround::0-127        31888     99.98%     99.98% # Reads before turning the bus around for writes
system.mem_ctrls2.rdPerTurnAround::128-255            4      0.01%     99.99% # Reads before turning the bus around for writes
system.mem_ctrls2.rdPerTurnAround::1152-1279            1      0.00%    100.00% # Reads before turning the bus around for writes
system.mem_ctrls2.rdPerTurnAround::2816-2943            1      0.00%    100.00% # Reads before turning the bus around for writes
system.mem_ctrls2.rdPerTurnAround::total        31894                       # Reads before turning the bus around for writes
system.mem_ctrls2.wrPerTurnAround::samples        31894                       # Writes before turning the bus around for reads
system.mem_ctrls2.wrPerTurnAround::mean      5.630840                       # Writes before turning the bus around for reads
system.mem_ctrls2.wrPerTurnAround::gmean     5.458649                       # Writes before turning the bus around for reads
system.mem_ctrls2.wrPerTurnAround::stdev     1.795345                       # Writes before turning the bus around for reads
system.mem_ctrls2.wrPerTurnAround::4-7          29156     91.42%     91.42% # Writes before turning the bus around for reads
system.mem_ctrls2.wrPerTurnAround::8-11          1899      5.95%     97.37% # Writes before turning the bus around for reads
system.mem_ctrls2.wrPerTurnAround::12-15          479      1.50%     98.87% # Writes before turning the bus around for reads
system.mem_ctrls2.wrPerTurnAround::16-19          360      1.13%    100.00% # Writes before turning the bus around for reads
system.mem_ctrls2.wrPerTurnAround::total        31894                       # Writes before turning the bus around for reads
system.mem_ctrls2.totQLat                 14663968128                       # Total ticks spent queuing
system.mem_ctrls2.totMemAccLat            20735311878                       # Total ticks spent from burst creation until serviced by the DRAM
system.mem_ctrls2.totBusLat                1619025000                       # Total ticks spent in databus transfers
system.mem_ctrls2.avgQLat                    45286.42                       # Average queueing delay per DRAM burst
system.mem_ctrls2.avgBusLat                   5000.00                       # Average bus latency per DRAM burst
system.mem_ctrls2.avgMemAccLat               64036.42                       # Average memory access latency per DRAM burst
system.mem_ctrls2.avgRdBW                      223.52                       # Average DRAM read bandwidth in MiByte/s
system.mem_ctrls2.avgWrBW                      123.97                       # Average achieved write bandwidth in MiByte/s
system.mem_ctrls2.avgRdBWSys                   223.53                       # Average system read bandwidth in MiByte/s
system.mem_ctrls2.avgWrBWSys                   123.97                       # Average system write bandwidth in MiByte/s
system.mem_ctrls2.peakBW                     12800.00                       # Theoretical peak bandwidth in MiByte/s
system.mem_ctrls2.busUtil                        2.71                       # Data bus utilization in percentage
system.mem_ctrls2.busUtilRead                    1.75                       # Data bus utilization in percentage for reads
system.mem_ctrls2.busUtilWrite                   0.97                       # Data bus utilization in percentage for writes
system.mem_ctrls2.avgRdQLen                      1.22                       # Average read queue length when enqueuing
system.mem_ctrls2.avgWrQLen                      2.98                       # Average write queue length when enqueuing
system.mem_ctrls2.readRowHits                  242571                       # Number of row buffer hits during reads
system.mem_ctrls2.writeRowHits                 109591                       # Number of row buffer hits during writes
system.mem_ctrls2.readRowHitRate                74.91                       # Row buffer hit rate for reads
system.mem_ctrls2.writeRowHitRate               61.02                       # Row buffer hit rate for writes
system.mem_ctrls2.avgGap                    184175.61                       # Average gap between requests
system.mem_ctrls2.pageHitRate                   69.96                       # Row buffer hit rate, read and write combined
system.mem_ctrls2.memoryStateTime::IDLE   15438486000                       # Time in different power states
system.mem_ctrls2.memoryStateTime::REF     3095820000                       # Time in different power states
system.mem_ctrls2.memoryStateTime::PRE_PDN            0                       # Time in different power states
system.mem_ctrls2.memoryStateTime::ACT    74176846500                       # Time in different power states
system.mem_ctrls2.memoryStateTime::ACT_PDN            0                       # Time in different power states
system.mem_ctrls2.actEnergy::0              577107720                       # Energy for activate commands per rank (pJ)
system.mem_ctrls2.actEnergy::1              566100360                       # Energy for activate commands per rank (pJ)
system.mem_ctrls2.preEnergy::0              314890125                       # Energy for precharge commands per rank (pJ)
system.mem_ctrls2.preEnergy::1              308884125                       # Energy for precharge commands per rank (pJ)
system.mem_ctrls2.readEnergy::0            1268545200                       # Energy for read commands per rank (pJ)
system.mem_ctrls2.readEnergy::1            1257024600                       # Energy for read commands per rank (pJ)
system.mem_ctrls2.writeEnergy::0            583485120                       # Energy for write commands per rank (pJ)
system.mem_ctrls2.writeEnergy::1            580225680                       # Energy for write commands per rank (pJ)
system.mem_ctrls2.refreshEnergy::0         6055423920                       # Energy for refresh commands per rank (pJ)
system.mem_ctrls2.refreshEnergy::1         6055423920                       # Energy for refresh commands per rank (pJ)
system.mem_ctrls2.actBackEnergy::0        37854863370                       # Energy for active background per rank (pJ)
system.mem_ctrls2.actBackEnergy::1        36940287825                       # Energy for active background per rank (pJ)
system.mem_ctrls2.preBackEnergy::0        22420662750                       # Energy for precharge background per rank (pJ)
system.mem_ctrls2.preBackEnergy::1        23222922000                       # Energy for precharge background per rank (pJ)
system.mem_ctrls2.totalEnergy::0          69074978205                       # Total energy per rank (pJ)
system.mem_ctrls2.totalEnergy::1          68930868510                       # Total energy per rank (pJ)
system.mem_ctrls2.averagePower::0          745.055871                       # Core power per rank (mW)
system.mem_ctrls2.averagePower::1          743.501476                       # Core power per rank (mW)
system.mem_ctrls3.bytes_read::ruby.dir_cntrl3     20698368                       # Number of bytes read from this memory
system.mem_ctrls3.bytes_read::total          20698368                       # Number of bytes read from this memory
system.mem_ctrls3.bytes_written::ruby.dir_cntrl3     11492608                       # Number of bytes written to this memory
system.mem_ctrls3.bytes_written::total       11492608                       # Number of bytes written to this memory
system.mem_ctrls3.num_reads::ruby.dir_cntrl3       323412                       # Number of read requests responded to by this memory
system.mem_ctrls3.num_reads::total             323412                       # Number of read requests responded to by this memory
system.mem_ctrls3.num_writes::ruby.dir_cntrl3       179572                       # Number of write requests responded to by this memory
system.mem_ctrls3.num_writes::total            179572                       # Number of write requests responded to by this memory
system.mem_ctrls3.bw_read::ruby.dir_cntrl3    223244869                       # Total read bandwidth from this memory (bytes/s)
system.mem_ctrls3.bw_read::total            223244869                       # Total read bandwidth from this memory (bytes/s)
system.mem_ctrls3.bw_write::ruby.dir_cntrl3    123954979                       # Write bandwidth from this memory (bytes/s)
system.mem_ctrls3.bw_write::total           123954979                       # Write bandwidth from this memory (bytes/s)
system.mem_ctrls3.bw_total::ruby.dir_cntrl3    347199847                       # Total bandwidth to/from this memory (bytes/s)
system.mem_ctrls3.bw_total::total           347199847                       # Total bandwidth to/from this memory (bytes/s)
system.mem_ctrls3.readReqs                     323413                       # Number of read requests accepted
system.mem_ctrls3.writeReqs                    179572                       # Number of write requests accepted
system.mem_ctrls3.readBursts                   323413                       # Number of DRAM read bursts, including those serviced by the write queue
system.mem_ctrls3.writeBursts                  179572                       # Number of DRAM write bursts, including those merged in the write queue
system.mem_ctrls3.bytesReadDRAM              20697728                       # Total number of bytes read from DRAM
system.mem_ctrls3.bytesReadWrQ                    704                       # Total number of bytes read from write queue
system.mem_ctrls3.bytesWritten               11492416                       # Total number of bytes written to DRAM
system.mem_ctrls3.bytesReadSys               20698432                       # Total read bytes from the system interface side
system.mem_ctrls3.bytesWrittenSys            11492608                       # Total written bytes from the system interface side
system.mem_ctrls3.servicedByWrQ                    11                       # Number of DRAM read bursts serviced by the write queue
system.mem_ctrls3.mergedWrBursts                    0                       # Number of DRAM write bursts merged with an existing one
system.mem_ctrls3.neitherReadNorWriteReqs            0                       # Number of requests that are neither read nor write
system.mem_ctrls3.perBankRdBursts::0            19955                       # Per bank write bursts
system.mem_ctrls3.perBankRdBursts::1            20573                       # Per bank write bursts
system.mem_ctrls3.perBankRdBursts::2            20075                       # Per bank write bursts
system.mem_ctrls3.perBankRdBursts::3            20492                       # Per bank write bursts
system.mem_ctrls3.perBankRdBursts::4            20100                       # Per bank write bursts
system.mem_ctrls3.perBankRdBursts::5            20583                       # Per bank write bursts
system.mem_ctrls3.perBankRdBursts::6            20265                       # Per bank write bursts
system.mem_ctrls3.perBankRdBursts::7            20340                       # Per bank write bursts
system.mem_ctrls3.perBankRdBursts::8            20245                       # Per bank write bursts
system.mem_ctrls3.perBankRdBursts::9            20469                       # Per bank write bursts
system.mem_ctrls3.perBankRdBursts::10           20248                       # Per bank write bursts
system.mem_ctrls3.perBankRdBursts::11           20501                       # Per bank write bursts
system.mem_ctrls3.perBankRdBursts::12           19829                       # Per bank write bursts
system.mem_ctrls3.perBankRdBursts::13           19682                       # Per bank write bursts
system.mem_ctrls3.perBankRdBursts::14           19977                       # Per bank write bursts
system.mem_ctrls3.perBankRdBursts::15           20068                       # Per bank write bursts
system.mem_ctrls3.perBankWrBursts::0            11104                       # Per bank write bursts
system.mem_ctrls3.perBankWrBursts::1            11272                       # Per bank write bursts
system.mem_ctrls3.perBankWrBursts::2            11260                       # Per bank write bursts
system.mem_ctrls3.perBankWrBursts::3            11251                       # Per bank write bursts
system.mem_ctrls3.perBankWrBursts::4            11205                       # Per bank write bursts
system.mem_ctrls3.perBankWrBursts::5            11508                       # Per bank write bursts
system.mem_ctrls3.perBankWrBursts::6            11153                       # Per bank write bursts
system.mem_ctrls3.perBankWrBursts::7            11260                       # Per bank write bursts
system.mem_ctrls3.perBankWrBursts::8            11460                       # Per bank write bursts
system.mem_ctrls3.perBankWrBursts::9            11310                       # Per bank write bursts
system.mem_ctrls3.perBankWrBursts::10           11118                       # Per bank write bursts
system.mem_ctrls3.perBankWrBursts::11           11313                       # Per bank write bursts
system.mem_ctrls3.perBankWrBursts::12           10962                       # Per bank write bursts
system.mem_ctrls3.perBankWrBursts::13           10903                       # Per bank write bursts
system.mem_ctrls3.perBankWrBursts::14           11291                       # Per bank write bursts
system.mem_ctrls3.perBankWrBursts::15           11199                       # Per bank write bursts
system.mem_ctrls3.numRdRetry                     3075                       # Number of times read queue was full causing retry
system.mem_ctrls3.numWrRetry                     2173                       # Number of times write queue was full causing retry
system.mem_ctrls3.totGap                  92715244000                       # Total gap between requests
system.mem_ctrls3.readPktSize::0                    0                       # Read request sizes (log2)
system.mem_ctrls3.readPktSize::1                    0                       # Read request sizes (log2)
system.mem_ctrls3.readPktSize::2                    0                       # Read request sizes (log2)
system.mem_ctrls3.readPktSize::3                    0                       # Read request sizes (log2)
system.mem_ctrls3.readPktSize::4                    0                       # Read request sizes (log2)
system.mem_ctrls3.readPktSize::5                    0                       # Read request sizes (log2)
system.mem_ctrls3.readPktSize::6               323413                       # Read request sizes (log2)
system.mem_ctrls3.writePktSize::0                   0                       # Write request sizes (log2)
system.mem_ctrls3.writePktSize::1                   0                       # Write request sizes (log2)
system.mem_ctrls3.writePktSize::2                   0                       # Write request sizes (log2)
system.mem_ctrls3.writePktSize::3                   0                       # Write request sizes (log2)
system.mem_ctrls3.writePktSize::4                   0                       # Write request sizes (log2)
system.mem_ctrls3.writePktSize::5                   0                       # Write request sizes (log2)
system.mem_ctrls3.writePktSize::6              179572                       # Write request sizes (log2)
system.mem_ctrls3.rdQLenPdf::0                 146761                       # What read queue length does an incoming req see
system.mem_ctrls3.rdQLenPdf::1                  31149                       # What read queue length does an incoming req see
system.mem_ctrls3.rdQLenPdf::2                  25741                       # What read queue length does an incoming req see
system.mem_ctrls3.rdQLenPdf::3                  20696                       # What read queue length does an incoming req see
system.mem_ctrls3.rdQLenPdf::4                  16238                       # What read queue length does an incoming req see
system.mem_ctrls3.rdQLenPdf::5                  13377                       # What read queue length does an incoming req see
system.mem_ctrls3.rdQLenPdf::6                  11012                       # What read queue length does an incoming req see
system.mem_ctrls3.rdQLenPdf::7                   9045                       # What read queue length does an incoming req see
system.mem_ctrls3.rdQLenPdf::8                   7288                       # What read queue length does an incoming req see
system.mem_ctrls3.rdQLenPdf::9                   6080                       # What read queue length does an incoming req see
system.mem_ctrls3.rdQLenPdf::10                  4948                       # What read queue length does an incoming req see
system.mem_ctrls3.rdQLenPdf::11                  4100                       # What read queue length does an incoming req see
system.mem_ctrls3.rdQLenPdf::12                  3471                       # What read queue length does an incoming req see
system.mem_ctrls3.rdQLenPdf::13                  2874                       # What read queue length does an incoming req see
system.mem_ctrls3.rdQLenPdf::14                  2374                       # What read queue length does an incoming req see
system.mem_ctrls3.rdQLenPdf::15                  1997                       # What read queue length does an incoming req see
system.mem_ctrls3.rdQLenPdf::16                  1698                       # What read queue length does an incoming req see
system.mem_ctrls3.rdQLenPdf::17                  1525                       # What read queue length does an incoming req see
system.mem_ctrls3.rdQLenPdf::18                  1360                       # What read queue length does an incoming req see
system.mem_ctrls3.rdQLenPdf::19                  1200                       # What read queue length does an incoming req see
system.mem_ctrls3.rdQLenPdf::20                  1044                       # What read queue length does an incoming req see
system.mem_ctrls3.rdQLenPdf::21                   910                       # What read queue length does an incoming req see
system.mem_ctrls3.rdQLenPdf::22                   771                       # What read queue length does an incoming req see
system.mem_ctrls3.rdQLenPdf::23                   724                       # What read queue length does an incoming req see
system.mem_ctrls3.rdQLenPdf::24                   633                       # What read queue length does an incoming req see
[...]
system.ruby.L2Cache_Controller.MT_MB.L1_PUTX::total          134                      
system.ruby.L2Cache_Controller.MT_MB.L1_PUTX_old |           0      0.00%      0.00% |           0      0.00%      0.00% |           0      0.00%      0.00% |           0      0.00%      0.00% |           0      0.00%      0.00% |           0      0.00%      0.00% |           0      0.00%      0.00% |           0      0.00%      0.00% |           0      0.00%      0.00% |           0      0.00%      0.00% |           0      0.00%      0.00% |           0      0.00%      0.00% |           0      0.00%      0.00% |           0      0.00%      0.00% |           0      0.00%      0.00% |           0      0.00%      0.00% |           0      0.00%      0.00% |           0      0.00%      0.00% |           0      0.00%      0.00% |           0      0.00%      0.00% |           0      0.00%      0.00% |           0      0.00%      0.00% |           0      0.00%      0.00% |           0      0.00%      0.00% |           0      0.00%      0.00% |           1    100.00%    100.00% |           0      0.00%    100.00% |           0      0.00%    100.00% |           0      0.00%    100.00% |           0      0.00%    100.00% |           0      0.00%    100.00% |           0      0.00%    100.00%
system.ruby.L2Cache_Controller.MT_MB.L1_PUTX_old::total            1                      
system.ruby.L2Cache_Controller.MT_MB.Exclusive_Unblock |      152735      5.70%      5.70% |       82630      3.09%      8.79% |       81195      3.03%     11.82% |       82178      3.07%     14.89% |       81215      3.03%     17.92% |       80505      3.01%     20.93% |       80616      3.01%     23.94% |       80339      3.00%     26.94% |       80857      3.02%     29.95% |       82000      3.06%     33.02% |       82842      3.09%     36.11% |       82132      3.07%     39.18% |       81603      3.05%     42.22% |       80156      2.99%     45.21% |       79611      2.97%     48.19% |       79925      2.98%     51.17% |       81228      3.03%     54.20% |       81093      3.03%     57.23% |       81804      3.05%     60.29% |       81878      3.06%     63.34% |       81387      3.04%     66.38% |       83661      3.12%     69.51% |       81525      3.04%     72.55% |       80753      3.02%     75.56% |       80955      3.02%     78.59% |       81465      3.04%     81.63% |       81373      3.04%     84.67% |       81022      3.03%     87.69% |       81171      3.03%     90.72% |       80461      3.00%     93.73% |       83202      3.11%     96.83% |       84826      3.17%    100.00%
system.ruby.L2Cache_Controller.MT_MB.Exclusive_Unblock::total      2678343                      
system.ruby.L2Cache_Controller.MT_IIB.L1_GETS |           0      0.00%      0.00% |           0      0.00%      0.00% |           0      0.00%      0.00% |           0      0.00%      0.00% |           0      0.00%      0.00% |           0      0.00%      0.00% |           0      0.00%      0.00% |           0      0.00%      0.00% |           0      0.00%      0.00% |           0      0.00%      0.00% |           0      0.00%      0.00% |           0      0.00%      0.00% |           0      0.00%      0.00% |           0      0.00%      0.00% |           0      0.00%      0.00% |           0      0.00%      0.00% |           0      0.00%      0.00% |           0      0.00%      0.00% |           0      0.00%      0.00% |           0      0.00%      0.00% |           0      0.00%      0.00% |           0      0.00%      0.00% |           0      0.00%      0.00% |           1     33.33%     33.33% |           1     33.33%     66.67% |           0      0.00%     66.67% |           0      0.00%     66.67% |           0      0.00%     66.67% |           0      0.00%     66.67% |           0      0.00%     66.67% |           0      0.00%     66.67% |           1     33.33%    100.00%
system.ruby.L2Cache_Controller.MT_IIB.L1_GETS::total            3                      
system.ruby.L2Cache_Controller.MT_IIB.L1_PUTX |           3      0.76%      0.76% |           4      1.01%      1.77% |          13      3.28%      5.05% |           5      1.26%      6.31% |           9      2.27%      8.59% |           6      1.52%     10.10% |          15      3.79%     13.89% |          11      2.78%     16.67% |           7      1.77%     18.43% |           2      0.51%     18.94% |          13      3.28%     22.22% |          13      3.28%     25.51% |          19      4.80%     30.30% |          14      3.54%     33.84% |          15      3.79%     37.63% |          20      5.05%     42.68% |          14      3.54%     46.21% |           6      1.52%     47.73% |          17      4.29%     52.02% |          16      4.04%     56.06% |          20      5.05%     61.11% |          13      3.28%     64.39% |          18      4.55%     68.94% |          15      3.79%     72.73% |          15      3.79%     76.52% |          13      3.28%     79.80% |          17      4.29%     84.09% |          17      4.29%     88.38% |          11      2.78%     91.16% |           8      2.02%     93.18% |          19      4.80%     97.98% |           8      2.02%    100.00%
system.ruby.L2Cache_Controller.MT_IIB.L1_PUTX::total          396                      
system.ruby.L2Cache_Controller.MT_IIB.WB_Data |           0      0.00%      0.00% |           0      0.00%      0.00% |           0      0.00%      0.00% |           0      0.00%      0.00% |           0      0.00%      0.00% |           0      0.00%      0.00% |           0      0.00%      0.00% |           0      0.00%      0.00% |           0      0.00%      0.00% |           0      0.00%      0.00% |           0      0.00%      0.00% |           0      0.00%      0.00% |           0      0.00%      0.00% |           0      0.00%      0.00% |           0      0.00%      0.00% |           0      0.00%      0.00% |           0      0.00%      0.00% |           0      0.00%      0.00% |           0      0.00%      0.00% |           0      0.00%      0.00% |           0      0.00%      0.00% |           0      0.00%      0.00% |           0      0.00%      0.00% |           0      0.00%      0.00% |           0      0.00%      0.00% |           2    100.00%    100.00% |           0      0.00%    100.00% |           0      0.00%    100.00% |           0      0.00%    100.00% |           0      0.00%    100.00% |           0      0.00%    100.00% |           0      0.00%    100.00%
system.ruby.L2Cache_Controller.MT_IIB.WB_Data::total            2                      
system.ruby.L2Cache_Controller.MT_IIB.WB_Data_clean |        1724      3.07%      3.07% |        1730      3.08%      6.14% |        1722      3.06%      9.21% |        1795      3.19%     12.40% |        1818      3.23%     15.63% |        1809      3.22%     18.85% |        1759      3.13%     21.98% |        1719      3.06%     25.04% |        1648      2.93%     27.97% |        1715      3.05%     31.02% |        1813      3.23%     34.25% |        1831      3.26%     37.50% |        1854      3.30%     40.80% |        1790      3.18%     43.98% |        1828      3.25%     47.24% |        1834      3.26%     50.50% |        1729      3.08%     53.57% |        1654      2.94%     56.52% |        1744      3.10%     59.62% |        1760      3.13%     62.75% |        1782      3.17%     65.92% |        1800      3.20%     69.12% |        1750      3.11%     72.23% |        1766      3.14%     75.38% |        1769      3.15%     78.52% |        1696      3.02%     81.54% |        1683      2.99%     84.53% |        1727      3.07%     87.61% |        1778      3.16%     90.77% |        1750      3.11%     93.88% |        1751      3.11%     97.00% |        1689      3.00%    100.00%
system.ruby.L2Cache_Controller.MT_IIB.WB_Data_clean::total        56217                      
system.ruby.L2Cache_Controller.MT_IIB.Unblock |          28      1.22%      1.22% |          48      2.08%      3.30% |          66      2.86%      6.16% |          68      2.95%      9.11% |          36      1.56%     10.68% |          70      3.04%     13.72% |          99      4.30%     18.01% |          86      3.73%     21.74% |         118      5.12%     26.87% |          77      3.34%     30.21% |          54      2.34%     32.55% |          64      2.78%     35.33% |          74      3.21%     38.54% |          96      4.17%     42.71% |          57      2.47%     45.18% |          41      1.78%     46.96% |          90      3.91%     50.87% |         151      6.55%     57.42% |          96      4.17%     61.59% |          68      2.95%     64.54% |         121      5.25%     69.79% |          62      2.69%     72.48% |          77      3.34%     75.82% |          64      2.78%     78.60% |          43      1.87%     80.47% |          54      2.34%     82.81% |          82      3.56%     86.37% |          76      3.30%     89.67% |          52      2.26%     91.93% |          61      2.65%     94.57% |          47      2.04%     96.61% |          78      3.39%    100.00%
system.ruby.L2Cache_Controller.MT_IIB.Unblock::total         2304                      
system.ruby.L2Cache_Controller.MT_IB.WB_Data_clean |          28      1.22%      1.22% |          48      2.08%      3.30% |          66      2.86%      6.16% |          68      2.95%      9.11% |          36      1.56%     10.68% |          70      3.04%     13.72% |          99      4.30%     18.01% |          86      3.73%     21.74% |         118      5.12%     26.87% |          77      3.34%     30.21% |          54      2.34%     32.55% |          64      2.78%     35.33% |          74      3.21%     38.54% |          96      4.17%     42.71% |          57      2.47%     45.18% |          41      1.78%     46.96% |          90      3.91%     50.87% |         151      6.55%     57.42% |          96      4.17%     61.59% |          68      2.95%     64.54% |         121      5.25%     69.79% |          62      2.69%     72.48% |          77      3.34%     75.82% |          64      2.78%     78.60% |          43      1.87%     80.47% |          54      2.34%     82.81% |          82      3.56%     86.37% |          76      3.30%     89.67% |          52      2.26%     91.93% |          61      2.65%     94.57% |          47      2.04%     96.61% |          78      3.39%    100.00%
system.ruby.L2Cache_Controller.MT_IB.WB_Data_clean::total         2304                      
system.ruby.L2Cache_Controller.MT_SB.L1_GETS |           1     33.33%     33.33% |           0      0.00%     33.33% |           0      0.00%     33.33% |           0      0.00%     33.33% |           0      0.00%     33.33% |           0      0.00%     33.33% |           0      0.00%     33.33% |           0      0.00%     33.33% |           1     33.33%     66.67% |           1     33.33%    100.00% |           0      0.00%    100.00% |           0      0.00%    100.00% |           0      0.00%    100.00% |           0      0.00%    100.00% |           0      0.00%    100.00% |           0      0.00%    100.00% |           0      0.00%    100.00% |           0      0.00%    100.00% |           0      0.00%    100.00% |           0      0.00%    100.00% |           0      0.00%    100.00% |           0      0.00%    100.00% |           0      0.00%    100.00% |           0      0.00%    100.00% |           0      0.00%    100.00% |           0      0.00%    100.00% |           0      0.00%    100.00% |           0      0.00%    100.00% |           0      0.00%    100.00% |           0      0.00%    100.00% |           0      0.00%    100.00% |           0      0.00%    100.00%
system.ruby.L2Cache_Controller.MT_SB.L1_GETS::total            3                      
system.ruby.L2Cache_Controller.MT_SB.L1_PUTX |           0      0.00%      0.00% |           0      0.00%      0.00% |           0      0.00%      0.00% |           0      0.00%      0.00% |           1      4.17%      4.17% |           0      0.00%      4.17% |           2      8.33%     12.50% |           0      0.00%     12.50% |           0      0.00%     12.50% |           0      0.00%     12.50% |           0      0.00%     12.50% |           0      0.00%     12.50% |           3     12.50%     25.00% |           1      4.17%     29.17% |           1      4.17%     33.33% |           0      0.00%     33.33% |           1      4.17%     37.50% |           1      4.17%     41.67% |           0      0.00%     41.67% |           1      4.17%     45.83% |           2      8.33%     54.17% |           0      0.00%     54.17% |           4     16.67%     70.83% |           0      0.00%     70.83% |           1      4.17%     75.00% |           3     12.50%     87.50% |           0      0.00%     87.50% |           1      4.17%     91.67% |           1      4.17%     95.83% |           0      0.00%     95.83% |           0      0.00%     95.83% |           1      4.17%    100.00%
system.ruby.L2Cache_Controller.MT_SB.L1_PUTX::total           24                      
system.ruby.L2Cache_Controller.MT_SB.Unblock |        1724      3.07%      3.07% |        1730      3.08%      6.14% |        1722      3.06%      9.21% |        1795      3.19%     12.40% |        1818      3.23%     15.63% |        1809      3.22%     18.85% |        1759      3.13%     21.98% |        1719      3.06%     25.04% |        1648      2.93%     27.97% |        1715      3.05%     31.02% |        1813      3.22%     34.24% |        1831      3.26%     37.50% |        1854      3.30%     40.80% |        1790      3.18%     43.98% |        1828      3.25%     47.23% |        1834      3.26%     50.50% |        1729      3.08%     53.57% |        1654      2.94%     56.51% |        1744      3.10%     59.62% |        1760      3.13%     62.75% |        1782      3.17%     65.92% |        1800      3.20%     69.12% |        1750      3.11%     72.23% |        1766      3.14%     75.37% |        1769      3.15%     78.52% |        1698      3.02%     81.54% |        1683      2.99%     84.53% |        1727      3.07%     87.61% |        1778      3.16%     90.77% |        1750      3.11%     93.88% |        1751      3.11%     97.00% |        1689      3.00%    100.00%
system.ruby.L2Cache_Controller.MT_SB.Unblock::total        56219                      
system.ruby.SimicsNetworkPortInterface_Controller.MessageSend |      486969     20.34%     20.34% |     1196963     50.00%     70.34% |       83919      3.51%     73.85% |       87227      3.64%     77.49% |       78203      3.27%     80.76% |       87050      3.64%     84.39% |      103744      4.33%     88.73% |      113599      4.75%     93.47% |       77896      3.25%     96.73% |       78356      3.27%    100.00% |           0      0.00%    100.00% |           0      0.00%    100.00% |           0      0.00%    100.00% |           0      0.00%    100.00% |           0      0.00%    100.00% |           0      0.00%    100.00% |           0      0.00%    100.00% |           0      0.00%    100.00% |           0      0.00%    100.00% |           0      0.00%    100.00% |           0      0.00%    100.00% |           0      0.00%    100.00% |           0      0.00%    100.00% |           0      0.00%    100.00% |           0      0.00%    100.00% |           0      0.00%    100.00% |           0      0.00%    100.00% |           0      0.00%    100.00% |           0      0.00%    100.00% |           0      0.00%    100.00% |           0      0.00%    100.00% |           0      0.00%    100.00%
system.ruby.SimicsNetworkPortInterface_Controller.MessageSend::total      2393926                      
system.ruby.SimicsNetworkPortInterface_Controller.MessageRecv |      486969     20.34%     20.34% |     1196963     50.00%     70.34% |       83919      3.51%     73.85% |       87227      3.64%     77.49% |       78203      3.27%     80.76% |       87050      3.64%     84.39% |      103744      4.33%     88.73% |      113599      4.75%     93.47% |       77896      3.25%     96.73% |       78356      3.27%    100.00% |           0      0.00%    100.00% |           0      0.00%    100.00% |           0      0.00%    100.00% |           0      0.00%    100.00% |           0      0.00%    100.00% |           0      0.00%    100.00% |           0      0.00%    100.00% |           0      0.00%    100.00% |           0      0.00%    100.00% |           0      0.00%    100.00% |           0      0.00%    100.00% |           0      0.00%    100.00% |           0      0.00%    100.00% |           0      0.00%    100.00% |           0      0.00%    100.00% |           0      0.00%    100.00% |           0      0.00%    100.00% |           0      0.00%    100.00% |           0      0.00%    100.00% |           0      0.00%    100.00% |           0      0.00%    100.00% |           0      0.00%    100.00%
system.ruby.SimicsNetworkPortInterface_Controller.MessageRecv::total      2393926                      
system.ruby.SimicsNetworkPortInterface_Controller.A.MessageSend |      486969     20.34%     20.34% |     1196963     50.00%     70.34% |       83919      3.51%     73.85% |       87227      3.64%     77.49% |       78203      3.27%     80.76% |       87050      3.64%     84.39% |      103744      4.33%     88.73% |      113599      4.75%     93.47% |       77896      3.25%     96.73% |       78356      3.27%    100.00% |           0      0.00%    100.00% |           0      0.00%    100.00% |           0      0.00%    100.00% |           0      0.00%    100.00% |           0      0.00%    100.00% |           0      0.00%    100.00% |           0      0.00%    100.00% |           0      0.00%    100.00% |           0      0.00%    100.00% |           0      0.00%    100.00% |           0      0.00%    100.00% |           0      0.00%    100.00% |           0      0.00%    100.00% |           0      0.00%    100.00% |           0      0.00%    100.00% |           0      0.00%    100.00% |           0      0.00%    100.00% |           0      0.00%    100.00% |           0      0.00%    100.00% |           0      0.00%    100.00% |           0      0.00%    100.00% |           0      0.00%    100.00%
system.ruby.SimicsNetworkPortInterface_Controller.A.MessageSend::total      2393926                      
system.ruby.SimicsNetworkPortInterface_Controller.A.MessageRecv |      486969     20.34%     20.34% |     1196963     50.00%     70.34% |       83919      3.51%     73.85% |       87227      3.64%     77.49% |       78203      3.27%     80.76% |       87050      3.64%     84.39% |      103744      4.33%     88.73% |      113599      4.75%     93.47% |       77896      3.25%     96.73% |       78356      3.27%    100.00% |           0      0.00%    100.00% |           0      0.00%    100.00% |           0      0.00%    100.00% |           0      0.00%    100.00% |           0      0.00%    100.00% |           0      0.00%    100.00% |           0      0.00%    100.00% |           0      0.00%    100.00% |           0      0.00%    100.00% |           0      0.00%    100.00% |           0      0.00%    100.00% |           0      0.00%    100.00% |           0      0.00%    100.00% |           0      0.00%    100.00% |           0      0.00%    100.00% |           0      0.00%    100.00% |           0      0.00%    100.00% |           0      0.00%    100.00% |           0      0.00%    100.00% |           0      0.00%    100.00% |           0      0.00%    100.00% |           0      0.00%    100.00%
system.ruby.SimicsNetworkPortInterface_Controller.A.MessageRecv::total      2393926                      
system.switch_cpus.kern.inst.arm                    0                       # number of arm instructions executed
system.switch_cpus.kern.inst.quiesce                0                       # number of quiesce instructions executed

---------- End Simulation Statistics   ----------
