
---------- Begin Simulation Statistics ----------
sim_seconds                                  0.093986                       # Number of seconds simulated
sim_ticks                                 93986369500                       # Number of ticks simulated
final_tick                               5270154448000                       # Number of ticks from beginning of simulation (restored from checkpoints and never reset)
sim_freq                                 1000000000000                       # Frequency of simulated ticks
host_inst_rate                                  25887                       # Simulator instruction rate (inst/s)
host_op_rate                                    45566                       # Simulator op (including micro ops) rate (op/s)
host_tick_rate                               56120867                       # Simulator tick rate (ticks/s)
host_mem_usage                                5544160                       # Number of bytes of host memory used
host_seconds                                  1674.71                       # Real time elapsed on the host
sim_insts                                    43354011                       # Number of instructions simulated
sim_ops                                      76309682                       # Number of ops (including micro ops) simulated
system.voltage_domain.voltage                       1                       # Voltage in Volts
system.clk_domain.clock                           500                       # Clock period in ticks
system.mem_ctrls0.bytes_read::ruby.dir_cntrl0     21073216                       # Number of bytes read from this memory
system.mem_ctrls0.bytes_read::total          21073216                       # Number of bytes read from this memory
system.mem_ctrls0.bytes_written::ruby.dir_cntrl0     11912320                       # Number of bytes written to this memory
system.mem_ctrls0.bytes_written::total       11912320                       # Number of bytes written to this memory
system.mem_ctrls0.num_reads::ruby.dir_cntrl0       329269                       # Number of read requests responded to by this memory
system.mem_ctrls0.num_reads::total             329269                       # Number of read requests responded to by this memory
system.mem_ctrls0.num_writes::ruby.dir_cntrl0       186130                       # Number of write requests responded to by this memory
system.mem_ctrls0.num_writes::total            186130                       # Number of write requests responded to by this memory
system.mem_ctrls0.bw_read::ruby.dir_cntrl0    224215661                       # Total read bandwidth from this memory (bytes/s)
system.mem_ctrls0.bw_read::total            224215661                       # Total read bandwidth from this memory (bytes/s)
system.mem_ctrls0.bw_write::ruby.dir_cntrl0    126745187                       # Write bandwidth from this memory (bytes/s)
system.mem_ctrls0.bw_write::total           126745187                       # Write bandwidth from this memory (bytes/s)
system.mem_ctrls0.bw_total::ruby.dir_cntrl0    350960849                       # Total bandwidth to/from this memory (bytes/s)
system.mem_ctrls0.bw_total::total           350960849                       # Total bandwidth to/from this memory (bytes/s)
system.mem_ctrls0.readReqs                     329269                       # Number of read requests accepted
system.mem_ctrls0.writeReqs                    186130                       # Number of write requests accepted
system.mem_ctrls0.readBursts                   329269                       # Number of DRAM read bursts, including those serviced by the write queue
system.mem_ctrls0.writeBursts                  186130                       # Number of DRAM write bursts, including those merged in the write queue
system.mem_ctrls0.bytesReadDRAM              21070464                       # Total number of bytes read from DRAM
system.mem_ctrls0.bytesReadWrQ                   2752                       # Total number of bytes read from write queue
system.mem_ctrls0.bytesWritten               11912192                       # Total number of bytes written to DRAM
system.mem_ctrls0.bytesReadSys               21073216                       # Total read bytes from the system interface side
system.mem_ctrls0.bytesWrittenSys            11912320                       # Total written bytes from the system interface side
system.mem_ctrls0.servicedByWrQ                    43                       # Number of DRAM read bursts serviced by the write queue
system.mem_ctrls0.mergedWrBursts                    0                       # Number of DRAM write bursts merged with an existing one
system.mem_ctrls0.neitherReadNorWriteReqs            0                       # Number of requests that are neither read nor write
system.mem_ctrls0.perBankRdBursts::0            20246                       # Per bank write bursts
system.mem_ctrls0.perBankRdBursts::1            20958                       # Per bank write bursts
system.mem_ctrls0.perBankRdBursts::2            20467                       # Per bank write bursts
system.mem_ctrls0.perBankRdBursts::3            20833                       # Per bank write bursts
system.mem_ctrls0.perBankRdBursts::4            20480                       # Per bank write bursts
system.mem_ctrls0.perBankRdBursts::5            20958                       # Per bank write bursts
system.mem_ctrls0.perBankRdBursts::6            20603                       # Per bank write bursts
system.mem_ctrls0.perBankRdBursts::7            20703                       # Per bank write bursts
system.mem_ctrls0.perBankRdBursts::8            20607                       # Per bank write bursts
system.mem_ctrls0.perBankRdBursts::9            20848                       # Per bank write bursts
system.mem_ctrls0.perBankRdBursts::10           20565                       # Per bank write bursts
system.mem_ctrls0.perBankRdBursts::11           20852                       # Per bank write bursts
system.mem_ctrls0.perBankRdBursts::12           20236                       # Per bank write bursts
system.mem_ctrls0.perBankRdBursts::13           20122                       # Per bank write bursts
system.mem_ctrls0.perBankRdBursts::14           20409                       # Per bank write bursts
system.mem_ctrls0.perBankRdBursts::15           20339                       # Per bank write bursts
system.mem_ctrls0.perBankWrBursts::0            11509                       # Per bank write bursts
system.mem_ctrls0.perBankWrBursts::1            11656                       # Per bank write bursts
system.mem_ctrls0.perBankWrBursts::2            11661                       # Per bank write bursts
system.mem_ctrls0.perBankWrBursts::3            11651                       # Per bank write bursts
system.mem_ctrls0.perBankWrBursts::4            11610                       # Per bank write bursts
system.mem_ctrls0.perBankWrBursts::5            11919                       # Per bank write bursts
system.mem_ctrls0.perBankWrBursts::6            11561                       # Per bank write bursts
system.mem_ctrls0.perBankWrBursts::7            11668                       # Per bank write bursts
system.mem_ctrls0.perBankWrBursts::8            11902                       # Per bank write bursts
system.mem_ctrls0.perBankWrBursts::9            11737                       # Per bank write bursts
system.mem_ctrls0.perBankWrBursts::10           11527                       # Per bank write bursts
system.mem_ctrls0.perBankWrBursts::11           11709                       # Per bank write bursts
system.mem_ctrls0.perBankWrBursts::12           11351                       # Per bank write bursts
system.mem_ctrls0.perBankWrBursts::13           11318                       # Per bank write bursts
system.mem_ctrls0.perBankWrBursts::14           11751                       # Per bank write bursts
system.mem_ctrls0.perBankWrBursts::15           11598                       # Per bank write bursts
system.mem_ctrls0.numRdRetry                     4769                       # Number of times read queue was full causing retry
system.mem_ctrls0.numWrRetry                     4805                       # Number of times write queue was full causing retry
system.mem_ctrls0.totGap                  93985806500                       # Total gap between requests
system.mem_ctrls0.readPktSize::0                    0                       # Read request sizes (log2)
system.mem_ctrls0.readPktSize::1                    0                       # Read request sizes (log2)
system.mem_ctrls0.readPktSize::2                    0                       # Read request sizes (log2)
system.mem_ctrls0.readPktSize::3                    0                       # Read request sizes (log2)
system.mem_ctrls0.readPktSize::4                    0                       # Read request sizes (log2)
system.mem_ctrls0.readPktSize::5                    0                       # Read request sizes (log2)
system.mem_ctrls0.readPktSize::6               329269                       # Read request sizes (log2)
system.mem_ctrls0.writePktSize::0                   0                       # Write request sizes (log2)
system.mem_ctrls0.writePktSize::1                   0                       # Write request sizes (log2)
system.mem_ctrls0.writePktSize::2                   0                       # Write request sizes (log2)
system.mem_ctrls0.writePktSize::3                   0                       # Write request sizes (log2)
system.mem_ctrls0.writePktSize::4                   0                       # Write request sizes (log2)
system.mem_ctrls0.writePktSize::5                   0                       # Write request sizes (log2)
system.mem_ctrls0.writePktSize::6              186130                       # Write request sizes (log2)
system.mem_ctrls0.rdQLenPdf::0                 146990                       # What read queue length does an incoming req see
system.mem_ctrls0.rdQLenPdf::1                  30974                       # What read queue length does an incoming req see
system.mem_ctrls0.rdQLenPdf::2                  25256                       # What read queue length does an incoming req see
system.mem_ctrls0.rdQLenPdf::3                  19392                       # What read queue length does an incoming req see
system.mem_ctrls0.rdQLenPdf::4                  15383                       # What read queue length does an incoming req see
system.mem_ctrls0.rdQLenPdf::5                  12523                       # What read queue length does an incoming req see
system.mem_ctrls0.rdQLenPdf::6                  10490                       # What read queue length does an incoming req see
system.mem_ctrls0.rdQLenPdf::7                   8687                       # What read queue length does an incoming req see
system.mem_ctrls0.rdQLenPdf::8                   7293                       # What read queue length does an incoming req see
system.mem_ctrls0.rdQLenPdf::9                   6190                       # What read queue length does an incoming req see
system.mem_ctrls0.rdQLenPdf::10                  5276                       # What read queue length does an incoming req see
system.mem_ctrls0.rdQLenPdf::11                  4588                       # What read queue length does an incoming req see
system.mem_ctrls0.rdQLenPdf::12                  4011                       # What read queue length does an incoming req see
system.mem_ctrls0.rdQLenPdf::13                  3515                       # What read queue length does an incoming req see
system.mem_ctrls0.rdQLenPdf::14                  3109                       # What read queue length does an incoming req see
system.mem_ctrls0.rdQLenPdf::15                  2536                       # What read queue length does an incoming req see
system.mem_ctrls0.rdQLenPdf::16                  2272                       # What read queue length does an incoming req see
system.mem_ctrls0.rdQLenPdf::17                  2087                       # What read queue length does an incoming req see
system.mem_ctrls0.rdQLenPdf::18                  1838                       # What read queue length does an incoming req see
system.mem_ctrls0.rdQLenPdf::19                  1619                       # What read queue length does an incoming req see
system.mem_ctrls0.rdQLenPdf::20                  1481                       # What read queue length does an incoming req see
system.mem_ctrls0.rdQLenPdf::21                  1309                       # What read queue length does an incoming req see
system.mem_ctrls0.rdQLenPdf::22                  1153                       # What read queue length does an incoming req see
system.mem_ctrls0.rdQLenPdf::23                   990                       # What read queue length does an incoming req see
system.mem_ctrls0.rdQLenPdf::24                   901                       # What read queue length does an incoming req see
system.mem_ctrls0.rdQLenPdf::25                   843                       # What read queue length does an incoming req see
system.mem_ctrls0.rdQLenPdf::26                   708                       # What read queue length does an incoming req see
system.mem_ctrls0.rdQLenPdf::27                   655                       # What read queue length does an incoming req see
system.mem_ctrls0.rdQLenPdf::28                   603                       # What read queue length does an incoming req see
system.mem_ctrls0.rdQLenPdf::29                   589                       # What read queue length does an incoming req see
system.mem_ctrls0.rdQLenPdf::30                   580                       # What read queue length does an incoming req see
system.mem_ctrls0.rdQLenPdf::31                  5385                       # What read queue length does an incoming req see
system.mem_ctrls0.wrQLenPdf::0                  31280                       # What write queue length does an incoming req see
system.mem_ctrls0.wrQLenPdf::1                  33758                       # What write queue length does an incoming req see
system.mem_ctrls0.wrQLenPdf::2                  34535                       # What write queue length does an incoming req see
system.mem_ctrls0.wrQLenPdf::3                  34856                       # What write queue length does an incoming req see
system.mem_ctrls0.wrQLenPdf::4                  34844                       # What write queue length does an incoming req see
system.mem_ctrls0.wrQLenPdf::5                   4990                       # What write queue length does an incoming req see
system.mem_ctrls0.wrQLenPdf::6                   4089                       # What write queue length does an incoming req see
system.mem_ctrls0.wrQLenPdf::7                   7778                       # What write queue length does an incoming req see
system.mem_ctrls0.bytesPerActivate::samples       133543                       # Bytes accessed per row activation
system.mem_ctrls0.bytesPerActivate::mean   246.974353                       # Bytes accessed per row activation
system.mem_ctrls0.bytesPerActivate::gmean   182.748442                       # Bytes accessed per row activation
system.mem_ctrls0.bytesPerActivate::stdev   207.521504                       # Bytes accessed per row activation
system.mem_ctrls0.bytesPerActivate::0-127        34842     26.09%     26.09% # Bytes accessed per row activation
system.mem_ctrls0.bytesPerActivate::128-255        37531     28.10%     54.19% # Bytes accessed per row activation
system.mem_ctrls0.bytesPerActivate::256-383        41355     30.97%     85.16% # Bytes accessed per row activation
system.mem_ctrls0.bytesPerActivate::384-511         6628      4.96%     90.13% # Bytes accessed per row activation
system.mem_ctrls0.bytesPerActivate::512-639         4621      3.46%     93.59% # Bytes accessed per row activation
system.mem_ctrls0.bytesPerActivate::640-767         2189      1.64%     95.22% # Bytes accessed per row activation
system.mem_ctrls0.bytesPerActivate::768-895         1710      1.28%     96.51% # Bytes accessed per row activation
system.mem_ctrls0.bytesPerActivate::896-1023         1248      0.93%     97.44% # Bytes accessed per row activation
system.mem_ctrls0.bytesPerActivate::1024-1151         3419      2.56%    100.00% # Bytes accessed per row activation
system.mem_ctrls0.bytesPerActivate::total       133543                       # Bytes accessed per row activation
system.mem_ctrls0.rdPerTurnAround::samples        31855                       # Reads before turning the bus around for writes
system.mem_ctrls0.rdPerTurnAround::mean     10.334861                       # Reads before turning the bus around for writes
system.mem_ctrls0.rdPerTurnAround::stdev    25.765402                       # Reads before turning the bus around for writes
system.mem_ctrls0.rdPerTurnAround::0-127        31830     99.92%     99.92% # Reads before turning the bus around for writes
system.mem_ctrls0.rdPerTurnAround::128-255           24      0.08%    100.00% # Reads before turning the bus around for writes
system.mem_ctrls0.rdPerTurnAround::3968-4095            1      0.00%    100.00% # Reads before turning the bus around for writes
system.mem_ctrls0.rdPerTurnAround::total        31855                       # Reads before turning the bus around for writes
system.mem_ctrls0.wrPerTurnAround::samples        31855                       # Writes before turning the bus around for reads
system.mem_ctrls0.wrPerTurnAround::mean      5.842976                       # Writes before turning the bus around for reads
system.mem_ctrls0.wrPerTurnAround::gmean     5.589146                       # Writes before turning the bus around for reads
system.mem_ctrls0.wrPerTurnAround::stdev     2.228985                       # Writes before turning the bus around for reads
system.mem_ctrls0.wrPerTurnAround::4-7          28281     88.78%     88.78% # Writes before turning the bus around for reads
system.mem_ctrls0.wrPerTurnAround::8-11          2152      6.76%     95.54% # Writes before turning the bus around for reads
system.mem_ctrls0.wrPerTurnAround::12-15          701      2.20%     97.74% # Writes before turning the bus around for reads
system.mem_ctrls0.wrPerTurnAround::16-19          721      2.26%    100.00% # Writes before turning the bus around for reads
system.mem_ctrls0.wrPerTurnAround::total        31855                       # Writes before turning the bus around for reads
system.mem_ctrls0.totQLat                 15250951388                       # Total ticks spent queuing
system.mem_ctrls0.totMemAccLat            21423938888                       # Total ticks spent from burst creation until serviced by the DRAM
system.mem_ctrls0.totBusLat                1646130000                       # Total ticks spent in databus transfers
system.mem_ctrls0.avgQLat                    46323.65                       # Average queueing delay per DRAM burst
system.mem_ctrls0.avgBusLat                   5000.00                       # Average bus latency per DRAM burst
system.mem_ctrls0.avgMemAccLat               65073.65                       # Average memory access latency per DRAM burst
system.mem_ctrls0.avgRdBW                      224.19                       # Average DRAM read bandwidth in MiByte/s
system.mem_ctrls0.avgWrBW                      126.74                       # Average achieved write bandwidth in MiByte/s
system.mem_ctrls0.avgRdBWSys                   224.22                       # Average system read bandwidth in MiByte/s
system.mem_ctrls0.avgWrBWSys                   126.75                       # Average system write bandwidth in MiByte/s
system.mem_ctrls0.peakBW                     12800.00                       # Theoretical peak bandwidth in MiByte/s
system.mem_ctrls0.busUtil                        2.74                       # Data bus utilization in percentage
system.mem_ctrls0.busUtilRead                    1.75                       # Data bus utilization in percentage for reads
system.mem_ctrls0.busUtilWrite                   0.99                       # Data bus utilization in percentage for writes
system.mem_ctrls0.avgRdQLen                      1.35                       # Average read queue length when enqueuing
system.mem_ctrls0.avgWrQLen                      2.98                       # Average write queue length when enqueuing
system.mem_ctrls0.readRowHits                  256559                       # Number of row buffer hits during reads
system.mem_ctrls0.writeRowHits                 125242                       # Number of row buffer hits during writes
system.mem_ctrls0.readRowHitRate                77.93                       # Row buffer hit rate for reads
system.mem_ctrls0.writeRowHitRate               67.29                       # Row buffer hit rate for writes
system.mem_ctrls0.avgGap                    182355.43                       # Average gap between requests
system.mem_ctrls0.pageHitRate                   74.08                       # Row buffer hit rate, read and write combined
system.mem_ctrls0.memoryStateTime::IDLE   15239849000                       # Time in different power states
system.mem_ctrls0.memoryStateTime::REF     3138200000                       # Time in different power states
system.mem_ctrls0.memoryStateTime::PRE_PDN            0                       # Time in different power states
system.mem_ctrls0.memoryStateTime::ACT    75605218000                       # Time in different power states
system.mem_ctrls0.memoryStateTime::ACT_PDN            0                       # Time in different power states
system.mem_ctrls0.actEnergy::0              511343280                       # Energy for activate commands per rank (pJ)
system.mem_ctrls0.actEnergy::1              498219120                       # Energy for activate commands per rank (pJ)
system.mem_ctrls0.preEnergy::0              279006750                       # Energy for precharge commands per rank (pJ)
system.mem_ctrls0.preEnergy::1              271845750                       # Energy for precharge commands per rank (pJ)
system.mem_ctrls0.readEnergy::0            1288864200                       # Energy for read commands per rank (pJ)
system.mem_ctrls0.readEnergy::1            1278973800                       # Energy for read commands per rank (pJ)
system.mem_ctrls0.writeEnergy::0            604156320                       # Energy for write commands per rank (pJ)
system.mem_ctrls0.writeEnergy::1            601920720                       # Energy for write commands per rank (pJ)
system.mem_ctrls0.refreshEnergy::0         6138319200                       # Energy for refresh commands per rank (pJ)
system.mem_ctrls0.refreshEnergy::1         6138319200                       # Energy for refresh commands per rank (pJ)
system.mem_ctrls0.actBackEnergy::0        39299556015                       # Energy for active background per rank (pJ)
system.mem_ctrls0.actBackEnergy::1        38579814450                       # Energy for active background per rank (pJ)
system.mem_ctrls0.preBackEnergy::0        21914883750                       # Energy for precharge background per rank (pJ)
system.mem_ctrls0.preBackEnergy::1        22546236000                       # Energy for precharge background per rank (pJ)
system.mem_ctrls0.totalEnergy::0          70036129515                       # Total energy per rank (pJ)
system.mem_ctrls0.totalEnergy::1          69915329040                       # Total energy per rank (pJ)
system.mem_ctrls0.averagePower::0          745.221407                       # Core power per rank (mW)
system.mem_ctrls0.averagePower::1          743.936026                       # Core power per rank (mW)
system.mem_ctrls1.bytes_read::ruby.dir_cntrl1     20649920                       # Number of bytes read from this memory
system.mem_ctrls1.bytes_read::total          20649920                       # Number of bytes read from this memory
system.mem_ctrls1.bytes_written::ruby.dir_cntrl1     11491776                       # Number of bytes written to this memory
system.mem_ctrls1.bytes_written::total       11491776                       # Number of bytes written to this memory
system.mem_ctrls1.num_reads::ruby.dir_cntrl1       322655                       # Number of read requests responded to by this memory
system.mem_ctrls1.num_reads::total             322655                       # Number of read requests responded to by this memory
system.mem_ctrls1.num_writes::ruby.dir_cntrl1       179559                       # Number of write requests responded to by this memory
system.mem_ctrls1.num_writes::total            179559                       # Number of write requests responded to by this memory
system.mem_ctrls1.bw_read::ruby.dir_cntrl1    219711859                       # Total read bandwidth from this memory (bytes/s)
system.mem_ctrls1.bw_read::total            219711859                       # Total read bandwidth from this memory (bytes/s)
system.mem_ctrls1.bw_write::ruby.dir_cntrl1    122270666                       # Write bandwidth from this memory (bytes/s)
system.mem_ctrls1.bw_write::total           122270666                       # Write bandwidth from this memory (bytes/s)
system.mem_ctrls1.bw_total::ruby.dir_cntrl1    341982525                       # Total bandwidth to/from this memory (bytes/s)
system.mem_ctrls1.bw_total::total           341982525                       # Total bandwidth to/from this memory (bytes/s)
system.mem_ctrls1.readReqs                     322655                       # Number of read requests accepted
system.mem_ctrls1.writeReqs                    179559                       # Number of write requests accepted
system.mem_ctrls1.readBursts                   322655                       # Number of DRAM read bursts, including those serviced by the write queue
system.mem_ctrls1.writeBursts                  179559                       # Number of DRAM write bursts, including those merged in the write queue
system.mem_ctrls1.bytesReadDRAM              20648064                       # Total number of bytes read from DRAM
system.mem_ctrls1.bytesReadWrQ                   1856                       # Total number of bytes read from write queue
system.mem_ctrls1.bytesWritten               11491648                       # Total number of bytes written to DRAM
system.mem_ctrls1.bytesReadSys               20649920                       # Total read bytes from the system interface side
system.mem_ctrls1.bytesWrittenSys            11491776                       # Total written bytes from the system interface side
system.mem_ctrls1.servicedByWrQ                    29                       # Number of DRAM read bursts serviced by the write queue
system.mem_ctrls1.mergedWrBursts                    0                       # Number of DRAM write bursts merged with an existing one
system.mem_ctrls1.neitherReadNorWriteReqs            0                       # Number of requests that are neither read nor write
system.mem_ctrls1.perBankRdBursts::0            19864                       # Per bank write bursts
system.mem_ctrls1.perBankRdBursts::1            20528                       # Per bank write bursts
system.mem_ctrls1.perBankRdBursts::2            20063                       # Per bank write bursts
system.mem_ctrls1.perBankRdBursts::3            20405                       # Per bank write bursts
system.mem_ctrls1.perBankRdBursts::4            20109                       # Per bank write bursts
system.mem_ctrls1.perBankRdBursts::5            20531                       # Per bank write bursts
system.mem_ctrls1.perBankRdBursts::6            20201                       # Per bank write bursts
system.mem_ctrls1.perBankRdBursts::7            20372                       # Per bank write bursts
system.mem_ctrls1.perBankRdBursts::8            20221                       # Per bank write bursts
system.mem_ctrls1.perBankRdBursts::9            20403                       # Per bank write bursts
system.mem_ctrls1.perBankRdBursts::10           20145                       # Per bank write bursts
system.mem_ctrls1.perBankRdBursts::11           20435                       # Per bank write bursts
system.mem_ctrls1.perBankRdBursts::12           19796                       # Per bank write bursts
system.mem_ctrls1.perBankRdBursts::13           19697                       # Per bank write bursts
system.mem_ctrls1.perBankRdBursts::14           19921                       # Per bank write bursts
system.mem_ctrls1.perBankRdBursts::15           19935                       # Per bank write bursts
system.mem_ctrls1.perBankWrBursts::0            11112                       # Per bank write bursts
system.mem_ctrls1.perBankWrBursts::1            11248                       # Per bank write bursts
system.mem_ctrls1.perBankWrBursts::2            11263                       # Per bank write bursts
system.mem_ctrls1.perBankWrBursts::3            11246                       # Per bank write bursts
system.mem_ctrls1.perBankWrBursts::4            11220                       # Per bank write bursts
system.mem_ctrls1.perBankWrBursts::5            11511                       # Per bank write bursts
system.mem_ctrls1.perBankWrBursts::6            11138                       # Per bank write bursts
system.mem_ctrls1.perBankWrBursts::7            11255                       # Per bank write bursts
system.mem_ctrls1.perBankWrBursts::8            11488                       # Per bank write bursts
system.mem_ctrls1.perBankWrBursts::9            11310                       # Per bank write bursts
system.mem_ctrls1.perBankWrBursts::10           11128                       # Per bank write bursts
system.mem_ctrls1.perBankWrBursts::11           11293                       # Per bank write bursts
system.mem_ctrls1.perBankWrBursts::12           10949                       # Per bank write bursts
system.mem_ctrls1.perBankWrBursts::13           10913                       # Per bank write bursts
system.mem_ctrls1.perBankWrBursts::14           11292                       # Per bank write bursts
system.mem_ctrls1.perBankWrBursts::15           11191                       # Per bank write bursts
system.mem_ctrls1.numRdRetry                     2441                       # Number of times read queue was full causing retry
system.mem_ctrls1.numWrRetry                     4536                       # Number of times write queue was full causing retry
system.mem_ctrls1.totGap                  93985535500                       # Total gap between requests
system.mem_ctrls1.readPktSize::0                    0                       # Read request sizes (log2)
system.mem_ctrls1.readPktSize::1                    0                       # Read request sizes (log2)
system.mem_ctrls1.readPktSize::2                    0                       # Read request sizes (log2)
system.mem_ctrls1.readPktSize::3                    0                       # Read request sizes (log2)
system.mem_ctrls1.readPktSize::4                    0                       # Read request sizes (log2)
system.mem_ctrls1.readPktSize::5                    0                       # Read request sizes (log2)
system.mem_ctrls1.readPktSize::6               322655                       # Read request sizes (log2)
system.mem_ctrls1.writePktSize::0                   0                       # Write request sizes (log2)
system.mem_ctrls1.writePktSize::1                   0                       # Write request sizes (log2)
system.mem_ctrls1.writePktSize::2                   0                       # Write request sizes (log2)
system.mem_ctrls1.writePktSize::3                   0                       # Write request sizes (log2)
system.mem_ctrls1.writePktSize::4                   0                       # Write request sizes (log2)
system.mem_ctrls1.writePktSize::5                   0                       # Write request sizes (log2)
system.mem_ctrls1.writePktSize::6              179559                       # Write request sizes (log2)
system.mem_ctrls1.rdQLenPdf::0                 143631                       # What read queue length does an incoming req see
system.mem_ctrls1.rdQLenPdf::1                  28484                       # What read queue length does an incoming req see
system.mem_ctrls1.rdQLenPdf::2                  23419                       # What read queue length does an incoming req see
system.mem_ctrls1.rdQLenPdf::3                  19255                       # What read queue length does an incoming req see
system.mem_ctrls1.rdQLenPdf::4                  15400                       # What read queue length does an incoming req see
system.mem_ctrls1.rdQLenPdf::5                  12901                       # What read queue length does an incoming req see
system.mem_ctrls1.rdQLenPdf::6                  10806                       # What read queue length does an incoming req see
system.mem_ctrls1.rdQLenPdf::7                   9086                       # What read queue length does an incoming req see
system.mem_ctrls1.rdQLenPdf::8                   7426                       # What read queue length does an incoming req see
system.mem_ctrls1.rdQLenPdf::9                   6446                       # What read queue length does an incoming req see
system.mem_ctrls1.rdQLenPdf::10                  5611                       # What read queue length does an incoming req see
system.mem_ctrls1.rdQLenPdf::11                  4900                       # What read queue length does an incoming req see
system.mem_ctrls1.rdQLenPdf::12                  4289                       # What read queue length does an incoming req see
system.mem_ctrls1.rdQLenPdf::13                  3627                       # What read queue length does an incoming req see
system.mem_ctrls1.rdQLenPdf::14                  3263                       # What read queue length does an incoming req see
system.mem_ctrls1.rdQLenPdf::15                  2827                       # What read queue length does an incoming req see
system.mem_ctrls1.rdQLenPdf::16                  2515                       # What read queue length does an incoming req see
system.mem_ctrls1.rdQLenPdf::17                  2227                       # What read queue length does an incoming req see
system.mem_ctrls1.rdQLenPdf::18                  1908                       # What read queue length does an incoming req see
system.mem_ctrls1.rdQLenPdf::19                  1713                       # What read queue length does an incoming req see
system.mem_ctrls1.rdQLenPdf::20                  1490                       # What read queue length does an incoming req see
system.mem_ctrls1.rdQLenPdf::21                  1352                       # What read queue length does an incoming req see
system.mem_ctrls1.rdQLenPdf::22                  1261                       # What read queue length does an incoming req see
system.mem_ctrls1.rdQLenPdf::23                  1141                       # What read queue length does an incoming req see
system.mem_ctrls1.rdQLenPdf::24                   980                       # What read queue length does an incoming req see
system.mem_ctrls1.rdQLenPdf::25                   813                       # What read queue length does an incoming req see
system.mem_ctrls1.rdQLenPdf::26                   715                       # What read queue length does an incoming req see
system.mem_ctrls1.rdQLenPdf::27                   653                       # What read queue length does an incoming req see
system.mem_ctrls1.rdQLenPdf::28                   557                       # What read queue length does an incoming req see
system.mem_ctrls1.rdQLenPdf::29                   528                       # What read queue length does an incoming req see
system.mem_ctrls1.rdQLenPdf::30                   490                       # What read queue length does an incoming req see
system.mem_ctrls1.rdQLenPdf::31                  2912                       # What read queue length does an incoming req see
system.mem_ctrls1.wrQLenPdf::0                  30135                       # What write queue length does an incoming req see
system.mem_ctrls1.wrQLenPdf::1                  32421                       # What write queue length does an incoming req see
system.mem_ctrls1.wrQLenPdf::2                  33273                       # What write queue length does an incoming req see
system.mem_ctrls1.wrQLenPdf::3                  33641                       # What write queue length does an incoming req see
system.mem_ctrls1.wrQLenPdf::4                  33772                       # What write queue length does an incoming req see
system.mem_ctrls1.wrQLenPdf::5                   4965                       # What write queue length does an incoming req see
system.mem_ctrls1.wrQLenPdf::6                   4012                       # What write queue length does an incoming req see
system.mem_ctrls1.wrQLenPdf::7                   7340                       # What write queue length does an incoming req see
system.mem_ctrls1.bytesPerActivate::samples       125072                       # Bytes accessed per row activation
system.mem_ctrls1.bytesPerActivate::mean   256.964564                       # Bytes accessed per row activation
system.mem_ctrls1.bytesPerActivate::gmean   190.406306                       # Bytes accessed per row activation
system.mem_ctrls1.bytesPerActivate::stdev   211.783581                       # Bytes accessed per row activation
system.mem_ctrls1.bytesPerActivate::0-127        31093     24.86%     24.86% # Bytes accessed per row activation
system.mem_ctrls1.bytesPerActivate::128-255        32759     26.19%     51.05% # Bytes accessed per row activation
system.mem_ctrls1.bytesPerActivate::256-383        41184     32.93%     83.98% # Bytes accessed per row activation
system.mem_ctrls1.bytesPerActivate::384-511         6596      5.27%     89.25% # Bytes accessed per row activation
system.mem_ctrls1.bytesPerActivate::512-639         4707      3.76%     93.02% # Bytes accessed per row activation
system.mem_ctrls1.bytesPerActivate::640-767         2340      1.87%     94.89% # Bytes accessed per row activation
system.mem_ctrls1.bytesPerActivate::768-895         1763      1.41%     96.30% # Bytes accessed per row activation
system.mem_ctrls1.bytesPerActivate::896-1023         1205      0.96%     97.26% # Bytes accessed per row activation
system.mem_ctrls1.bytesPerActivate::1024-1151         3425      2.74%    100.00% # Bytes accessed per row activation
system.mem_ctrls1.bytesPerActivate::total       125072                       # Bytes accessed per row activation
system.mem_ctrls1.rdPerTurnAround::samples        30681                       # Reads before turning the bus around for writes
system.mem_ctrls1.rdPerTurnAround::mean     10.514031                       # Reads before turning the bus around for writes
system.mem_ctrls1.rdPerTurnAround::stdev    21.977844                       # Reads before turning the bus around for writes
system.mem_ctrls1.rdPerTurnAround::0-127        30661     99.93%     99.93% # Reads before turning the bus around for writes
system.mem_ctrls1.rdPerTurnAround::128-255           18      0.06%     99.99% # Reads before turning the bus around for writes
system.mem_ctrls1.rdPerTurnAround::1152-1279            1      0.00%    100.00% # Reads before turning the bus around for writes
system.mem_ctrls1.rdPerTurnAround::2816-2943            1      0.00%    100.00% # Reads before turning the bus around for writes
system.mem_ctrls1.rdPerTurnAround::total        30681                       # Reads before turning the bus around for writes
system.mem_ctrls1.wrPerTurnAround::samples        30681                       # Writes before turning the bus around for reads
system.mem_ctrls1.wrPerTurnAround::mean      5.852384                       # Writes before turning the bus around for reads
system.mem_ctrls1.wrPerTurnAround::gmean     5.593896                       # Writes before turning the bus around for reads
system.mem_ctrls1.wrPerTurnAround::stdev     2.243464                       # Writes before turning the bus around for reads
system.mem_ctrls1.wrPerTurnAround::4-7          27100     88.33%     88.33% # Writes before turning the bus around for reads
system.mem_ctrls1.wrPerTurnAround::8-11          2176      7.09%     95.42% # Writes before turning the bus around for reads
system.mem_ctrls1.wrPerTurnAround::12-15          752      2.45%     97.87% # Writes before turning the bus around for reads
system.mem_ctrls1.wrPerTurnAround::16-19          653      2.13%    100.00% # Writes before turning the bus around for reads
system.mem_ctrls1.wrPerTurnAround::total        30681                       # Writes before turning the bus around for reads
system.mem_ctrls1.totQLat                 14619029189                       # Total ticks spent queuing
system.mem_ctrls1.totMemAccLat            20668266689                       # Total ticks spent from burst creation until serviced by the DRAM
system.mem_ctrls1.totBusLat                1613130000                       # Total ticks spent in databus transfers
system.mem_ctrls1.avgQLat                    45312.62                       # Average queueing delay per DRAM burst
system.mem_ctrls1.avgBusLat                   5000.00                       # Average bus latency per DRAM burst
system.mem_ctrls1.avgMemAccLat               64062.62                       # Average memory access latency per DRAM burst
system.mem_ctrls1.avgRdBW                      219.69                       # Average DRAM read bandwidth in MiByte/s
system.mem_ctrls1.avgWrBW                      122.27                       # Average achieved write bandwidth in MiByte/s
system.mem_ctrls1.avgRdBWSys                   219.71                       # Average system read bandwidth in MiByte/s
system.mem_ctrls1.avgWrBWSys                   122.27                       # Average system write bandwidth in MiByte/s
system.mem_ctrls1.peakBW                     12800.00                       # Theoretical peak bandwidth in MiByte/s
system.mem_ctrls1.busUtil                        2.67                       # Data bus utilization in percentage
system.mem_ctrls1.busUtilRead                    1.72                       # Data bus utilization in percentage for reads
system.mem_ctrls1.busUtilWrite                   0.96                       # Data bus utilization in percentage for writes
system.mem_ctrls1.avgRdQLen                      1.33                       # Average read queue length when enqueuing
system.mem_ctrls1.avgWrQLen                      3.00                       # Average write queue length when enqueuing
system.mem_ctrls1.readRowHits                  253651                       # Number of row buffer hits during reads
system.mem_ctrls1.writeRowHits                 123454                       # Number of row buffer hits during writes
system.mem_ctrls1.readRowHitRate                78.62                       # Row buffer hit rate for reads
system.mem_ctrls1.writeRowHitRate               68.75                       # Row buffer hit rate for writes
system.mem_ctrls1.avgGap                    187142.40                       # Average gap between requests
system.mem_ctrls1.pageHitRate                   75.09                       # Row buffer hit rate, read and write combined
system.mem_ctrls1.memoryStateTime::IDLE   15447703000                       # Time in different power states
system.mem_ctrls1.memoryStateTime::REF     3138200000                       # Time in different power states
system.mem_ctrls1.memoryStateTime::PRE_PDN            0                       # Time in different power states
system.mem_ctrls1.memoryStateTime::ACT    75397365000                       # Time in different power states
system.mem_ctrls1.memoryStateTime::ACT_PDN            0                       # Time in different power states
system.mem_ctrls1.actEnergy::0              480112920                       # Energy for activate commands per rank (pJ)
system.mem_ctrls1.actEnergy::1              465416280                       # Energy for activate commands per rank (pJ)
system.mem_ctrls1.preEnergy::0              261966375                       # Energy for precharge commands per rank (pJ)
system.mem_ctrls1.preEnergy::1              253947375                       # Energy for precharge commands per rank (pJ)
system.mem_ctrls1.readEnergy::0            1264083600                       # Energy for read commands per rank (pJ)
system.mem_ctrls1.readEnergy::1            1252274400                       # Energy for read commands per rank (pJ)
system.mem_ctrls1.writeEnergy::0            583154640                       # Energy for write commands per rank (pJ)
system.mem_ctrls1.writeEnergy::1            580374720                       # Energy for write commands per rank (pJ)
system.mem_ctrls1.refreshEnergy::0         6138319200                       # Energy for refresh commands per rank (pJ)
system.mem_ctrls1.refreshEnergy::1         6138319200                       # Energy for refresh commands per rank (pJ)
system.mem_ctrls1.actBackEnergy::0        38787612795                       # Energy for active background per rank (pJ)
system.mem_ctrls1.actBackEnergy::1        37828682415                       # Energy for active background per rank (pJ)
system.mem_ctrls1.preBackEnergy::0        22363956750                       # Energy for precharge background per rank (pJ)
system.mem_ctrls1.preBackEnergy::1        23205123750                       # Energy for precharge background per rank (pJ)
system.mem_ctrls1.totalEnergy::0          69879206280                       # Total energy per rank (pJ)
system.mem_ctrls1.totalEnergy::1          69724138140                       # Total energy per rank (pJ)
system.mem_ctrls1.averagePower::0          743.551661                       # Core power per rank (mW)
system.mem_ctrls1.averagePower::1          741.901654                       # Core power per rank (mW)
system.mem_ctrls2.bytes_read::ruby.dir_cntrl2     20659456                       # Number of bytes read from this memory
system.mem_ctrls2.bytes_read::total          20659456                       # Number of bytes read from this memory
system.mem_ctrls2.bytes_written::ruby.dir_cntrl2     11491968                       # Number of bytes written to this memory
system.mem_ctrls2.bytes_written::total       11491968                       # Number of bytes written to this memory
system.mem_ctrls2.num_reads::ruby.dir_cntrl2       322804                       # Number of read requests responded to by this memory
system.mem_ctrls2.num_reads::total             322804                       # Number of read requests responded to by this memory
system.mem_ctrls2.num_writes::ruby.dir_cntrl2       179562                       # Number of write requests responded to by this memory
system.mem_ctrls2.num_writes::total            179562                       # Number of write requests responded to by this memory
system.mem_ctrls2.bw_read::ruby.dir_cntrl2    219813321                       # Total read bandwidth from this memory (bytes/s)
system.mem_ctrls2.bw_read::total            219813321                       # Total read bandwidth from this memory (bytes/s)
system.mem_ctrls2.bw_write::ruby.dir_cntrl2    122272709                       # Write bandwidth from this memory (bytes/s)
system.mem_ctrls2.bw_write::total           122272709                       # Write bandwidth from this memory (bytes/s)
system.mem_ctrls2.bw_total::ruby.dir_cntrl2    342086030                       # Total bandwidth to/from this memory (bytes/s)
system.mem_ctrls2.bw_total::total           342086030                       # Total bandwidth to/from this memory (bytes/s)
system.mem_ctrls2.readReqs                     322804                       # Number of read requests accepted
system.mem_ctrls2.writeReqs                    179562                       # Number of write requests accepted
system.mem_ctrls2.readBursts                   322804                       # Number of DRAM read bursts, including those serviced by the write queue
system.mem_ctrls2.writeBursts                  179562                       # Number of DRAM write bursts, including those merged in the write queue
system.mem_ctrls2.bytesReadDRAM              20658496                       # Total number of bytes read from DRAM
system.mem_ctrls2.bytesReadWrQ                    960                       # Total number of bytes read from write queue
system.mem_ctrls2.bytesWritten               11491904                       # Total number of bytes written to DRAM
system.mem_ctrls2.bytesReadSys               20659456                       # Total read bytes from the system interface side
system.mem_ctrls2.bytesWrittenSys            11491968                       # Total written bytes from the system interface side
system.mem_ctrls2.servicedByWrQ                    15                       # Number of DRAM read bursts serviced by the write queue
system.mem_ctrls2.mergedWrBursts                    0                       # Number of DRAM write bursts merged with an existing one
system.mem_ctrls2.neitherReadNorWriteReqs            0                       # Number of requests that are neither read nor write
system.mem_ctrls2.perBankRdBursts::0            19890                       # Per bank write bursts
system.mem_ctrls2.perBankRdBursts::1            20523                       # Per bank write bursts
system.mem_ctrls2.perBankRdBursts::2            20100                       # Per bank write bursts
system.mem_ctrls2.perBankRdBursts::3            20497                       # Per bank write bursts
system.mem_ctrls2.perBankRdBursts::4            20079                       # Per bank write bursts
system.mem_ctrls2.perBankRdBursts::5            20534                       # Per bank write bursts
system.mem_ctrls2.perBankRdBursts::6            20189                       # Per bank write bursts
system.mem_ctrls2.perBankRdBursts::7            20314                       # Per bank write bursts
system.mem_ctrls2.perBankRdBursts::8            20202                       # Per bank write bursts
system.mem_ctrls2.perBankRdBursts::9            20435                       # Per bank write bursts
system.mem_ctrls2.perBankRdBursts::10           20163                       # Per bank write bursts
system.mem_ctrls2.perBankRdBursts::11           20507                       # Per bank write bursts
system.mem_ctrls2.perBankRdBursts::12           19833                       # Per bank write bursts
system.mem_ctrls2.perBankRdBursts::13           19678                       # Per bank write bursts
system.mem_ctrls2.perBankRdBursts::14           19893                       # Per bank write bursts
system.mem_ctrls2.perBankRdBursts::15           19952                       # Per bank write bursts
system.mem_ctrls2.perBankWrBursts::0            11111                       # Per bank write bursts
system.mem_ctrls2.perBankWrBursts::1            11246                       # Per bank write bursts
system.mem_ctrls2.perBankWrBursts::2            11259                       # Per bank write bursts
system.mem_ctrls2.perBankWrBursts::3            11266                       # Per bank write bursts
system.mem_ctrls2.perBankWrBursts::4            11201                       # Per bank write bursts
system.mem_ctrls2.perBankWrBursts::5            11495                       # Per bank write bursts
system.mem_ctrls2.perBankWrBursts::6            11145                       # Per bank write bursts
system.mem_ctrls2.perBankWrBursts::7            11256                       # Per bank write bursts
system.mem_ctrls2.perBankWrBursts::8            11464                       # Per bank write bursts
system.mem_ctrls2.perBankWrBursts::9            11319                       # Per bank write bursts
system.mem_ctrls2.perBankWrBursts::10           11114                       # Per bank write bursts
system.mem_ctrls2.perBankWrBursts::11           11312                       # Per bank write bursts
system.mem_ctrls2.perBankWrBursts::12           10958                       # Per bank write bursts
system.mem_ctrls2.perBankWrBursts::13           10913                       # Per bank write bursts
system.mem_ctrls2.perBankWrBursts::14           11293                       # Per bank write bursts
system.mem_ctrls2.perBankWrBursts::15           11209                       # Per bank write bursts
system.mem_ctrls2.numRdRetry                     4311                       # Number of times read queue was full causing retry
system.mem_ctrls2.numWrRetry                     4835                       # Number of times write queue was full causing retry
system.mem_ctrls2.totGap                  93986228000                       # Total gap between requests
system.mem_ctrls2.readPktSize::0                    0                       # Read request sizes (log2)
system.mem_ctrls2.readPktSize::1                    0                       # Read request sizes (log2)
system.mem_ctrls2.readPktSize::2                    0                       # Read request sizes (log2)
system.mem_ctrls2.readPktSize::3                    0                       # Read request sizes (log2)
system.mem_ctrls2.readPktSize::4                    0                       # Read request sizes (log2)
system.mem_ctrls2.readPktSize::5                    0                       # Read request sizes (log2)
system.mem_ctrls2.readPktSize::6               322804                       # Read request sizes (log2)
system.mem_ctrls2.writePktSize::0                   0                       # Write request sizes (log2)
system.mem_ctrls2.writePktSize::1                   0                       # Write request sizes (log2)
system.mem_ctrls2.writePktSize::2                   0                       # Write request sizes (log2)
system.mem_ctrls2.writePktSize::3                   0                       # Write request sizes (log2)
system.mem_ctrls2.writePktSize::4                   0                       # Write request sizes (log2)
system.mem_ctrls2.writePktSize::5                   0                       # Write request sizes (log2)
system.mem_ctrls2.writePktSize::6              179562                       # Write request sizes (log2)
system.mem_ctrls2.rdQLenPdf::0                 144146                       # What read queue length does an incoming req see
system.mem_ctrls2.rdQLenPdf::1                  28132                       # What read queue length does an incoming req see
system.mem_ctrls2.rdQLenPdf::2                  23804                       # What read queue length does an incoming req see
system.mem_ctrls2.rdQLenPdf::3                  19289                       # What read queue length does an incoming req see
system.mem_ctrls2.rdQLenPdf::4                  15234                       # What read queue length does an incoming req see
system.mem_ctrls2.rdQLenPdf::5                  12699                       # What read queue length does an incoming req see
system.mem_ctrls2.rdQLenPdf::6                  10610                       # What read queue length does an incoming req see
system.mem_ctrls2.rdQLenPdf::7                   8951                       # What read queue length does an incoming req see
system.mem_ctrls2.rdQLenPdf::8                   7389                       # What read queue length does an incoming req see
system.mem_ctrls2.rdQLenPdf::9                   6342                       # What read queue length does an incoming req see
system.mem_ctrls2.rdQLenPdf::10                  5386                       # What read queue length does an incoming req see
system.mem_ctrls2.rdQLenPdf::11                  4640                       # What read queue length does an incoming req see
system.mem_ctrls2.rdQLenPdf::12                  3977                       # What read queue length does an incoming req see
system.mem_ctrls2.rdQLenPdf::13                  3383                       # What read queue length does an incoming req see
system.mem_ctrls2.rdQLenPdf::14                  3003                       # What read queue length does an incoming req see
system.mem_ctrls2.rdQLenPdf::15                  2665                       # What read queue length does an incoming req see
system.mem_ctrls2.rdQLenPdf::16                  2282                       # What read queue length does an incoming req see
system.mem_ctrls2.rdQLenPdf::17                  2053                       # What read queue length does an incoming req see
system.mem_ctrls2.rdQLenPdf::18                  1856                       # What read queue length does an incoming req see
system.mem_ctrls2.rdQLenPdf::19                  1634                       # What read queue length does an incoming req see
system.mem_ctrls2.rdQLenPdf::20                  1461                       # What read queue length does an incoming req see
system.mem_ctrls2.rdQLenPdf::21                  1316                       # What read queue length does an incoming req see
system.mem_ctrls2.rdQLenPdf::22                  1163                       # What read queue length does an incoming req see
system.mem_ctrls2.rdQLenPdf::23                  1061                       # What read queue length does an incoming req see
system.mem_ctrls2.rdQLenPdf::24                   953                       # What read queue length does an incoming req see
system.mem_ctrls2.rdQLenPdf::25                   907                       # What read queue length does an incoming req see
system.mem_ctrls2.rdQLenPdf::26                   834                       # What read queue length does an incoming req see
system.mem_ctrls2.rdQLenPdf::27                   747                       # What read queue length does an incoming req see
system.mem_ctrls2.rdQLenPdf::28                   679                       # What read queue length does an incoming req see
system.mem_ctrls2.rdQLenPdf::29                   660                       # What read queue length does an incoming req see
system.mem_ctrls2.rdQLenPdf::30                   597                       # What read queue length does an incoming req see
system.mem_ctrls2.rdQLenPdf::31                  4936                       # What read queue length does an incoming req see
system.mem_ctrls2.wrQLenPdf::0                  30063                       # What write queue length does an incoming req see
system.mem_ctrls2.wrQLenPdf::1                  32344                       # What write queue length does an incoming req see
system.mem_ctrls2.wrQLenPdf::2                  33233                       # What write queue length does an incoming req see
system.mem_ctrls2.wrQLenPdf::3                  33625                       # What write queue length does an incoming req see
system.mem_ctrls2.wrQLenPdf::4                  33692                       # What write queue length does an incoming req see
system.mem_ctrls2.wrQLenPdf::5                   4812                       # What write queue length does an incoming req see
system.mem_ctrls2.wrQLenPdf::6                   4036                       # What write queue length does an incoming req see
system.mem_ctrls2.wrQLenPdf::7                   7757                       # What write queue length does an incoming req see
system.mem_ctrls2.bytesPerActivate::samples       124632                       # Bytes accessed per row activation
system.mem_ctrls2.bytesPerActivate::mean   257.955453                       # Bytes accessed per row activation
system.mem_ctrls2.bytesPerActivate::gmean   191.182622                       # Bytes accessed per row activation
system.mem_ctrls2.bytesPerActivate::stdev   212.684605                       # Bytes accessed per row activation
system.mem_ctrls2.bytesPerActivate::0-127        30677     24.61%     24.61% # Bytes accessed per row activation
system.mem_ctrls2.bytesPerActivate::128-255        32615     26.17%     50.78% # Bytes accessed per row activation
system.mem_ctrls2.bytesPerActivate::256-383        41375     33.20%     83.98% # Bytes accessed per row activation
system.mem_ctrls2.bytesPerActivate::384-511         6427      5.16%     89.14% # Bytes accessed per row activation
system.mem_ctrls2.bytesPerActivate::512-639         4604      3.69%     92.83% # Bytes accessed per row activation
system.mem_ctrls2.bytesPerActivate::640-767         2469      1.98%     94.81% # Bytes accessed per row activation
system.mem_ctrls2.bytesPerActivate::768-895         1780      1.43%     96.24% # Bytes accessed per row activation
system.mem_ctrls2.bytesPerActivate::896-1023         1227      0.98%     97.23% # Bytes accessed per row activation
system.mem_ctrls2.bytesPerActivate::1024-1151         3458      2.77%    100.00% # Bytes accessed per row activation
system.mem_ctrls2.bytesPerActivate::total       124632                       # Bytes accessed per row activation
system.mem_ctrls2.rdPerTurnAround::samples        30611                       # Reads before turning the bus around for writes
system.mem_ctrls2.rdPerTurnAround::mean     10.543399                       # Reads before turning the bus around for writes
system.mem_ctrls2.rdPerTurnAround::stdev    22.191272                       # Reads before turning the bus around for writes
system.mem_ctrls2.rdPerTurnAround::0-127        30587     99.92%     99.92% # Reads before turning the bus around for writes
system.mem_ctrls2.rdPerTurnAround::128-255           22      0.07%     99.99% # Reads before turning the bus around for writes
system.mem_ctrls2.rdPerTurnAround::1152-1279            1      0.00%    100.00% # Reads before turning the bus around for writes
system.mem_ctrls2.rdPerTurnAround::2816-2943            1      0.00%    100.00% # Reads before turning the bus around for writes
system.mem_ctrls2.rdPerTurnAround::total        30611                       # Reads before turning the bus around for writes
system.mem_ctrls2.wrPerTurnAround::samples        30611                       # Writes before turning the bus around for reads
system.mem_ctrls2.wrPerTurnAround::mean      5.865898                       # Writes before turning the bus around for reads
system.mem_ctrls2.wrPerTurnAround::gmean     5.600939                       # Writes before turning the bus around for reads
system.mem_ctrls2.wrPerTurnAround::stdev     2.276268                       # Writes before turning the bus around for reads
system.mem_ctrls2.wrPerTurnAround::4-7          26973     88.12%     88.12% # Writes before turning the bus around for reads
system.mem_ctrls2.wrPerTurnAround::8-11          2193      7.16%     95.28% # Writes before turning the bus around for reads
system.mem_ctrls2.wrPerTurnAround::12-15          742      2.42%     97.70% # Writes before turning the bus around for reads
system.mem_ctrls2.wrPerTurnAround::16-19          703      2.30%    100.00% # Writes before turning the bus around for reads
system.mem_ctrls2.wrPerTurnAround::total        30611                       # Writes before turning the bus around for reads
system.mem_ctrls2.totQLat                 14891452236                       # Total ticks spent queuing
system.mem_ctrls2.totMemAccLat            20943745986                       # Total ticks spent from burst creation until serviced by the DRAM
system.mem_ctrls2.totBusLat                1613945000                       # Total ticks spent in databus transfers
system.mem_ctrls2.avgQLat                    46133.70                       # Average queueing delay per DRAM burst
system.mem_ctrls2.avgBusLat                   5000.00                       # Average bus latency per DRAM burst
system.mem_ctrls2.avgMemAccLat               64883.70                       # Average memory access latency per DRAM burst
system.mem_ctrls2.avgRdBW                      219.80                       # Average DRAM read bandwidth in MiByte/s
system.mem_ctrls2.avgWrBW                      122.27                       # Average achieved write bandwidth in MiByte/s
system.mem_ctrls2.avgRdBWSys                   219.81                       # Average system read bandwidth in MiByte/s
system.mem_ctrls2.avgWrBWSys                   122.27                       # Average system write bandwidth in MiByte/s
system.mem_ctrls2.peakBW                     12800.00                       # Theoretical peak bandwidth in MiByte/s
system.mem_ctrls2.busUtil                        2.67                       # Data bus utilization in percentage
system.mem_ctrls2.busUtilRead                    1.72                       # Data bus utilization in percentage for reads
system.mem_ctrls2.busUtilWrite                   0.96                       # Data bus utilization in percentage for writes
system.mem_ctrls2.avgRdQLen                      1.33                       # Average read queue length when enqueuing
system.mem_ctrls2.avgWrQLen                      3.00                       # Average write queue length when enqueuing
system.mem_ctrls2.readRowHits                  253630                       # Number of row buffer hits during reads
system.mem_ctrls2.writeRowHits                 124079                       # Number of row buffer hits during writes
system.mem_ctrls2.readRowHitRate                78.57                       # Row buffer hit rate for reads
system.mem_ctrls2.writeRowHitRate               69.10                       # Row buffer hit rate for writes
system.mem_ctrls2.avgGap                    187087.16                       # Average gap between requests
system.mem_ctrls2.pageHitRate                   75.19                       # Row buffer hit rate, read and write combined
system.mem_ctrls2.memoryStateTime::IDLE   15485599750                       # Time in different power states
system.mem_ctrls2.memoryStateTime::REF     3138200000                       # Time in different power states
system.mem_ctrls2.memoryStateTime::PRE_PDN            0                       # Time in different power states
system.mem_ctrls2.memoryStateTime::ACT    75356511500                       # Time in different power states
system.mem_ctrls2.memoryStateTime::ACT_PDN            0                       # Time in different power states
system.mem_ctrls2.actEnergy::0              477739080                       # Energy for activate commands per rank (pJ)
system.mem_ctrls2.actEnergy::1              464441040                       # Energy for activate commands per rank (pJ)
system.mem_ctrls2.preEnergy::0              260671125                       # Energy for precharge commands per rank (pJ)
system.mem_ctrls2.preEnergy::1              253415250                       # Energy for precharge commands per rank (pJ)
system.mem_ctrls2.readEnergy::0            1264489200                       # Energy for read commands per rank (pJ)
system.mem_ctrls2.readEnergy::1            1253101200                       # Energy for read commands per rank (pJ)
system.mem_ctrls2.writeEnergy::0            583063920                       # Energy for write commands per rank (pJ)
system.mem_ctrls2.writeEnergy::1            580491360                       # Energy for write commands per rank (pJ)
system.mem_ctrls2.refreshEnergy::0         6138319200                       # Energy for refresh commands per rank (pJ)
system.mem_ctrls2.refreshEnergy::1         6138319200                       # Energy for refresh commands per rank (pJ)
system.mem_ctrls2.actBackEnergy::0        38680052940                       # Energy for active background per rank (pJ)
system.mem_ctrls2.actBackEnergy::1        37763007300                       # Energy for active background per rank (pJ)
system.mem_ctrls2.preBackEnergy::0        22458307500                       # Energy for precharge background per rank (pJ)
system.mem_ctrls2.preBackEnergy::1        23262733500                       # Energy for precharge background per rank (pJ)
system.mem_ctrls2.totalEnergy::0          69862642965                       # Total energy per rank (pJ)
system.mem_ctrls2.totalEnergy::1          69715508850                       # Total energy per rank (pJ)
system.mem_ctrls2.averagePower::0          743.375418                       # Core power per rank (mW)
system.mem_ctrls2.averagePower::1          741.809834                       # Core power per rank (mW)
system.mem_ctrls3.bytes_read::ruby.dir_cntrl3     20630720                       # Number of bytes read from this memory
system.mem_ctrls3.bytes_read::total          20630720                       # Number of bytes read from this memory
system.mem_ctrls3.bytes_written::ruby.dir_cntrl3     11490688                       # Number of bytes written to this memory
system.mem_ctrls3.bytes_written::total       11490688                       # Number of bytes written to this memory
system.mem_ctrls3.num_reads::ruby.dir_cntrl3       322355                       # Number of read requests responded to by this memory
system.mem_ctrls3.num_reads::total             322355                       # Number of read requests responded to by this memory
system.mem_ctrls3.num_writes::ruby.dir_cntrl3       179542                       # Number of write requests responded to by this memory
system.mem_ctrls3.num_writes::total            179542                       # Number of write requests responded to by this memory
system.mem_ctrls3.bw_read::ruby.dir_cntrl3    219507574                       # Total read bandwidth from this memory (bytes/s)
system.mem_ctrls3.bw_read::total            219507574                       # Total read bandwidth from this memory (bytes/s)
system.mem_ctrls3.bw_write::ruby.dir_cntrl3    122259090                       # Write bandwidth from this memory (bytes/s)
system.mem_ctrls3.bw_write::total           122259090                       # Write bandwidth from this memory (bytes/s)
system.mem_ctrls3.bw_total::ruby.dir_cntrl3    341766664                       # Total bandwidth to/from this memory (bytes/s)
system.mem_ctrls3.bw_total::total           341766664                       # Total bandwidth to/from this memory (bytes/s)
system.mem_ctrls3.readReqs                     322356                       # Number of read requests accepted
system.mem_ctrls3.writeReqs                    179542                       # Number of write requests accepted
system.mem_ctrls3.readBursts                   322356                       # Number of DRAM read bursts, including those serviced by the write queue
system.mem_ctrls3.writeBursts                  179542                       # Number of DRAM write bursts, including those merged in the write queue
system.mem_ctrls3.bytesReadDRAM              20630080                       # Total number of bytes read from DRAM
system.mem_ctrls3.bytesReadWrQ                    704                       # Total number of bytes read from write queue
system.mem_ctrls3.bytesWritten               11490688                       # Total number of bytes written to DRAM
system.mem_ctrls3.bytesReadSys               20630784                       # Total read bytes from the system interface side
system.mem_ctrls3.bytesWrittenSys            11490688                       # Total written bytes from the system interface side
system.mem_ctrls3.servicedByWrQ                    11                       # Number of DRAM read bursts serviced by the write queue
system.mem_ctrls3.mergedWrBursts                    0                       # Number of DRAM write bursts merged with an existing one
system.mem_ctrls3.neitherReadNorWriteReqs            0                       # Number of requests that are neither read nor write
system.mem_ctrls3.perBankRdBursts::0            19870                       # Per bank write bursts
system.mem_ctrls3.perBankRdBursts::1            20501                       # Per bank write bursts
system.mem_ctrls3.perBankRdBursts::2            20020                       # Per bank write bursts
system.mem_ctrls3.perBankRdBursts::3            20433                       # Per bank write bursts
system.mem_ctrls3.perBankRdBursts::4            20037                       # Per bank write bursts
system.mem_ctrls3.perBankRdBursts::5            20499                       # Per bank write bursts
system.mem_ctrls3.perBankRdBursts::6            20178                       # Per bank write bursts
system.mem_ctrls3.perBankRdBursts::7            20315                       # Per bank write bursts
system.mem_ctrls3.perBankRdBursts::8            20199                       # Per bank write bursts
system.mem_ctrls3.perBankRdBursts::9            20389                       # Per bank write bursts
system.mem_ctrls3.perBankRdBursts::10           20181                       # Per bank write bursts
system.mem_ctrls3.perBankRdBursts::11           20416                       # Per bank write bursts
system.mem_ctrls3.perBankRdBursts::12           19777                       # Per bank write bursts
system.mem_ctrls3.perBankRdBursts::13           19674                       # Per bank write bursts
system.mem_ctrls3.perBankRdBursts::14           19921                       # Per bank write bursts
system.mem_ctrls3.perBankRdBursts::15           19935                       # Per bank write bursts
system.mem_ctrls3.perBankWrBursts::0            11103                       # Per bank write bursts
system.mem_ctrls3.perBankWrBursts::1            11251                       # Per bank write bursts
system.mem_ctrls3.perBankWrBursts::2            11258                       # Per bank write bursts
system.mem_ctrls3.perBankWrBursts::3            11248                       # Per bank write bursts
system.mem_ctrls3.perBankWrBursts::4            11208                       # Per bank write bursts
system.mem_ctrls3.perBankWrBursts::5            11509                       # Per bank write bursts
system.mem_ctrls3.perBankWrBursts::6            11139                       # Per bank write bursts
system.mem_ctrls3.perBankWrBursts::7            11246                       # Per bank write bursts
system.mem_ctrls3.perBankWrBursts::8            11463                       # Per bank write bursts
system.mem_ctrls3.perBankWrBursts::9            11328                       # Per bank write bursts
system.mem_ctrls3.perBankWrBursts::10           11116                       # Per bank write bursts
system.mem_ctrls3.perBankWrBursts::11           11314                       # Per bank write bursts
system.mem_ctrls3.perBankWrBursts::12           10968                       # Per bank write bursts
system.mem_ctrls3.perBankWrBursts::13           10902                       # Per bank write bursts
system.mem_ctrls3.perBankWrBursts::14           11294                       # Per bank write bursts
system.mem_ctrls3.perBankWrBursts::15           11195                       # Per bank write bursts
system.mem_ctrls3.numRdRetry                     2720                       # Number of times read queue was full causing retry
system.mem_ctrls3.numWrRetry                     4108                       # Number of times write queue was full causing retry
system.mem_ctrls3.totGap                  93985628000                       # Total gap between requests
system.mem_ctrls3.readPktSize::0                    0                       # Read request sizes (log2)
system.mem_ctrls3.readPktSize::1                    0                       # Read request sizes (log2)
system.mem_ctrls3.readPktSize::2                    0                       # Read request sizes (log2)
system.mem_ctrls3.readPktSize::3                    0                       # Read request sizes (log2)
system.mem_ctrls3.readPktSize::4                    0                       # Read request sizes (log2)
system.mem_ctrls3.readPktSize::5                    0                       # Read request sizes (log2)
system.mem_ctrls3.readPktSize::6               322356                       # Read request sizes (log2)
system.mem_ctrls3.writePktSize::0                   0                       # Write request sizes (log2)
system.mem_ctrls3.writePktSize::1                   0                       # Write request sizes (log2)
system.mem_ctrls3.writePktSize::2                   0                       # Write request sizes (log2)
system.mem_ctrls3.writePktSize::3                   0                       # Write request sizes (log2)
system.mem_ctrls3.writePktSize::4                   0                       # Write request sizes (log2)
system.mem_ctrls3.writePktSize::5                   0                       # Write request sizes (log2)
system.mem_ctrls3.writePktSize::6              179542                       # Write request sizes (log2)
system.mem_ctrls3.rdQLenPdf::0                 143820                       # What read queue length does an incoming req see
system.mem_ctrls3.rdQLenPdf::1                  28526                       # What read queue length does an incoming req see
system.mem_ctrls3.rdQLenPdf::2                  23333                       # What read queue length does an incoming req see
system.mem_ctrls3.rdQLenPdf::3                  18953                       # What read queue length does an incoming req see
system.mem_ctrls3.rdQLenPdf::4                  15061                       # What read queue length does an incoming req see
system.mem_ctrls3.rdQLenPdf::5                  12717                       # What read queue length does an incoming req see
system.mem_ctrls3.rdQLenPdf::6                  10718                       # What read queue length does an incoming req see
system.mem_ctrls3.rdQLenPdf::7                   9037                       # What read queue length does an incoming req see
system.mem_ctrls3.rdQLenPdf::8                   7574                       # What read queue length does an incoming req see
system.mem_ctrls3.rdQLenPdf::9                   6500                       # What read queue length does an incoming req see
system.mem_ctrls3.rdQLenPdf::10                  5728                       # What read queue length does an incoming req see
system.mem_ctrls3.rdQLenPdf::11                  4887                       # What read queue length does an incoming req see
system.mem_ctrls3.rdQLenPdf::12                  4284                       # What read queue length does an incoming req see
system.mem_ctrls3.rdQLenPdf::13                  3723                       # What read queue length does an incoming req see
system.mem_ctrls3.rdQLenPdf::14                  3206                       # What read queue length does an incoming req see
system.mem_ctrls3.rdQLenPdf::15                  2776                       # What read queue length does an incoming req see
system.mem_ctrls3.rdQLenPdf::16                  2531                       # What read queue length does an incoming req see
system.mem_ctrls3.rdQLenPdf::17                  2203                       # What read queue length does an incoming req see
system.mem_ctrls3.rdQLenPdf::18                  1965                       # What read queue length does an incoming req see
system.mem_ctrls3.rdQLenPdf::19                  1745                       # What read queue length does an incoming req see
system.mem_ctrls3.rdQLenPdf::20                  1615                       # What read queue length does an incoming req see
system.mem_ctrls3.rdQLenPdf::21                  1344                       # What read queue length does an incoming req see
system.mem_ctrls3.rdQLenPdf::22                  1181                       # What read queue length does an incoming req see
system.mem_ctrls3.rdQLenPdf::23                  1018                       # What read queue length does an incoming req see
system.mem_ctrls3.rdQLenPdf::24                   927                       # What read queue length does an incoming req see
[...]
system.ruby.L2Cache_Controller.MT_MB.L1_PUTX::total          204                      
system.ruby.L2Cache_Controller.MT_MB.L1_PUTX_old |           0      0.00%      0.00% |           0      0.00%      0.00% |           0      0.00%      0.00% |           0      0.00%      0.00% |           0      0.00%      0.00% |           0      0.00%      0.00% |           0      0.00%      0.00% |           1     10.00%     10.00% |           0      0.00%     10.00% |           0      0.00%     10.00% |           0      0.00%     10.00% |           0      0.00%     10.00% |           0      0.00%     10.00% |           1     10.00%     20.00% |           0      0.00%     20.00% |           1     10.00%     30.00% |           0      0.00%     30.00% |           0      0.00%     30.00% |           0      0.00%     30.00% |           0      0.00%     30.00% |           0      0.00%     30.00% |           1     10.00%     40.00% |           0      0.00%     40.00% |           5     50.00%     90.00% |           0      0.00%     90.00% |           1     10.00%    100.00% |           0      0.00%    100.00% |           0      0.00%    100.00% |           0      0.00%    100.00% |           0      0.00%    100.00% |           0      0.00%    100.00% |           0      0.00%    100.00%
system.ruby.L2Cache_Controller.MT_MB.L1_PUTX_old::total           10                      
system.ruby.L2Cache_Controller.MT_MB.Exclusive_Unblock |      152531      5.70%      5.70% |       82601      3.09%      8.78% |       81203      3.03%     11.82% |       82204      3.07%     14.89% |       81391      3.04%     17.93% |       81129      3.03%     20.96% |       81094      3.03%     23.99% |       80702      3.01%     27.00% |       80809      3.02%     30.02% |       81990      3.06%     33.08% |       83003      3.10%     36.18% |       82310      3.07%     39.26% |       81895      3.06%     42.31% |       80648      3.01%     45.33% |       79899      2.98%     48.31% |       80170      2.99%     51.31% |       81069      3.03%     54.33% |       80689      3.01%     57.35% |       81078      3.03%     60.38% |       81308      3.04%     63.41% |       80990      3.03%     66.44% |       83426      3.12%     69.55% |       81174      3.03%     72.59% |       80569      3.01%     75.60% |       80625      3.01%     78.61% |       81169      3.03%     81.64% |       80814      3.02%     84.66% |       80600      3.01%     87.67% |       81050      3.03%     90.70% |       80719      3.02%     93.71% |       83342      3.11%     96.82% |       85030      3.18%    100.00%
system.ruby.L2Cache_Controller.MT_MB.Exclusive_Unblock::total      2677231                      
system.ruby.L2Cache_Controller.MT_IIB.L1_GETS |           0      0.00%      0.00% |           0      0.00%      0.00% |           0      0.00%      0.00% |           0      0.00%      0.00% |           0      0.00%      0.00% |           0      0.00%      0.00% |           0      0.00%      0.00% |           0      0.00%      0.00% |           0      0.00%      0.00% |           0      0.00%      0.00% |           0      0.00%      0.00% |           1     16.67%     16.67% |           0      0.00%     16.67% |           0      0.00%     16.67% |           0      0.00%     16.67% |           0      0.00%     16.67% |           0      0.00%     16.67% |           2     33.33%     50.00% |           0      0.00%     50.00% |           2     33.33%     83.33% |           1     16.67%    100.00% |           0      0.00%    100.00% |           0      0.00%    100.00% |           0      0.00%    100.00% |           0      0.00%    100.00% |           0      0.00%    100.00% |           0      0.00%    100.00% |           0      0.00%    100.00% |           0      0.00%    100.00% |           0      0.00%    100.00% |           0      0.00%    100.00% |           0      0.00%    100.00%
system.ruby.L2Cache_Controller.MT_IIB.L1_GETS::total            6                      
system.ruby.L2Cache_Controller.MT_IIB.L1_PUTX |           2      0.93%      0.93% |           3      1.40%      2.33% |           3      1.40%      3.72% |           5      2.33%      6.05% |           4      1.86%      7.91% |           3      1.40%      9.30% |           4      1.86%     11.16% |           4      1.86%     13.02% |           7      3.26%     16.28% |           8      3.72%     20.00% |           7      3.26%     23.26% |           2      0.93%     24.19% |          10      4.65%     28.84% |           3      1.40%     30.23% |          11      5.12%     35.35% |           8      3.72%     39.07% |           5      2.33%     41.40% |          12      5.58%     46.98% |          12      5.58%     52.56% |           7      3.26%     55.81% |          10      4.65%     60.47% |           4      1.86%     62.33% |          12      5.58%     67.91% |          12      5.58%     73.49% |          10      4.65%     78.14% |           9      4.19%     82.33% |           6      2.79%     85.12% |           6      2.79%     87.91% |           5      2.33%     90.23% |           3      1.40%     91.63% |           9      4.19%     95.81% |           9      4.19%    100.00%
system.ruby.L2Cache_Controller.MT_IIB.L1_PUTX::total          215                      
system.ruby.L2Cache_Controller.MT_IIB.WB_Data |           0      0.00%      0.00% |           0      0.00%      0.00% |           0      0.00%      0.00% |           0      0.00%      0.00% |           0      0.00%      0.00% |           0      0.00%      0.00% |           0      0.00%      0.00% |           0      0.00%      0.00% |           0      0.00%      0.00% |           0      0.00%      0.00% |           0      0.00%      0.00% |           0      0.00%      0.00% |           0      0.00%      0.00% |           0      0.00%      0.00% |           0      0.00%      0.00% |           0      0.00%      0.00% |           0      0.00%      0.00% |           0      0.00%      0.00% |           0      0.00%      0.00% |           0      0.00%      0.00% |           0      0.00%      0.00% |           0      0.00%      0.00% |           0      0.00%      0.00% |           0      0.00%      0.00% |           0      0.00%      0.00% |           2    100.00%    100.00% |           0      0.00%    100.00% |           0      0.00%    100.00% |           0      0.00%    100.00% |           0      0.00%    100.00% |           0      0.00%    100.00% |           0      0.00%    100.00%
system.ruby.L2Cache_Controller.MT_IIB.WB_Data::total            2                      
system.ruby.L2Cache_Controller.MT_IIB.WB_Data_clean |        1249      3.16%      3.16% |        1213      3.06%      6.22% |        1158      2.93%      9.15% |        1155      2.92%     12.06% |        1118      2.82%     14.89% |        1155      2.92%     17.81% |        1230      3.11%     20.92% |        1247      3.15%     24.07% |        1177      2.97%     27.04% |        1187      3.00%     30.04% |        1220      3.08%     33.12% |        1209      3.05%     36.18% |        1166      2.95%     39.12% |        1255      3.17%     42.29% |        1275      3.22%     45.51% |        1286      3.25%     48.76% |        1318      3.33%     52.09% |        1304      3.29%     55.39% |        1250      3.16%     58.55% |        1280      3.23%     61.78% |        1273      3.22%     65.00% |        1268      3.20%     68.20% |        1311      3.31%     71.51% |        1313      3.32%     74.83% |        1266      3.20%     78.03% |        1274      3.22%     81.25% |        1257      3.18%     84.42% |        1259      3.18%     87.60% |        1239      3.13%     90.73% |        1199      3.03%     93.76% |        1227      3.10%     96.86% |        1241      3.14%    100.00%
system.ruby.L2Cache_Controller.MT_IIB.WB_Data_clean::total        39579                      
system.ruby.L2Cache_Controller.MT_IIB.Unblock |          20      1.00%      1.00% |          46      2.29%      3.29% |          92      4.58%      7.87% |          80      3.98%     11.85% |         116      5.78%     17.63% |         100      4.98%     22.61% |          13      0.65%     23.26% |          25      1.25%     24.50% |          67      3.34%     27.84% |          79      3.93%     31.77% |          52      2.59%     34.36% |          66      3.29%     37.65% |         107      5.33%     42.98% |          73      3.64%     46.61% |          43      2.14%     48.75% |          49      2.44%     51.20% |          11      0.55%     51.74% |          32      1.59%     53.34% |          86      4.28%     57.62% |          49      2.44%     60.06% |          80      3.98%     64.04% |          70      3.49%     67.53% |          53      2.64%     70.17% |          34      1.69%     71.86% |          82      4.08%     75.95% |          70      3.49%     79.43% |          73      3.64%     83.07% |          39      1.94%     85.01% |          82      4.08%     89.09% |         100      4.98%     94.07% |          73      3.64%     97.71% |          46      2.29%    100.00%
system.ruby.L2Cache_Controller.MT_IIB.Unblock::total         2008                      
system.ruby.L2Cache_Controller.MT_IB.L1_PUTX |           0      0.00%      0.00% |           0      0.00%      0.00% |           0      0.00%      0.00% |           0      0.00%      0.00% |           0      0.00%      0.00% |           1     50.00%     50.00% |           0      0.00%     50.00% |           0      0.00%     50.00% |           0      0.00%     50.00% |           0      0.00%     50.00% |           0      0.00%     50.00% |           0      0.00%     50.00% |           0      0.00%     50.00% |           0      0.00%     50.00% |           0      0.00%     50.00% |           0      0.00%     50.00% |           0      0.00%     50.00% |           0      0.00%     50.00% |           1     50.00%    100.00% |           0      0.00%    100.00% |           0      0.00%    100.00% |           0      0.00%    100.00% |           0      0.00%    100.00% |           0      0.00%    100.00% |           0      0.00%    100.00% |           0      0.00%    100.00% |           0      0.00%    100.00% |           0      0.00%    100.00% |           0      0.00%    100.00% |           0      0.00%    100.00% |           0      0.00%    100.00% |           0      0.00%    100.00%
system.ruby.L2Cache_Controller.MT_IB.L1_PUTX::total            2                      
system.ruby.L2Cache_Controller.MT_IB.WB_Data_clean |          20      1.00%      1.00% |          46      2.29%      3.29% |          92      4.58%      7.87% |          80      3.98%     11.85% |         116      5.78%     17.63% |         100      4.98%     22.61% |          13      0.65%     23.26% |          25      1.25%     24.50% |          67      3.34%     27.84% |          79      3.93%     31.77% |          52      2.59%     34.36% |          66      3.29%     37.65% |         107      5.33%     42.98% |          73      3.64%     46.61% |          43      2.14%     48.75% |          49      2.44%     51.20% |          11      0.55%     51.74% |          32      1.59%     53.34% |          86      4.28%     57.62% |          49      2.44%     60.06% |          80      3.98%     64.04% |          70      3.49%     67.53% |          53      2.64%     70.17% |          34      1.69%     71.86% |          82      4.08%     75.95% |          70      3.49%     79.43% |          73      3.64%     83.07% |          39      1.94%     85.01% |          82      4.08%     89.09% |         100      4.98%     94.07% |          73      3.64%     97.71% |          46      2.29%    100.00%
system.ruby.L2Cache_Controller.MT_IB.WB_Data_clean::total         2008                      
system.ruby.L2Cache_Controller.MT_SB.L1_PUTX |           1      2.86%      2.86% |           0      0.00%      2.86% |           1      2.86%      5.71% |           0      0.00%      5.71% |           0      0.00%      5.71% |           0      0.00%      5.71% |           1      2.86%      8.57% |           1      2.86%     11.43% |           0      0.00%     11.43% |           2      5.71%     17.14% |           4     11.43%     28.57% |           1      2.86%     31.43% |           1      2.86%     34.29% |           0      0.00%     34.29% |           1      2.86%     37.14% |           1      2.86%     40.00% |           0      0.00%     40.00% |           3      8.57%     48.57% |           1      2.86%     51.43% |           1      2.86%     54.29% |           3      8.57%     62.86% |           1      2.86%     65.71% |           0      0.00%     65.71% |           1      2.86%     68.57% |           2      5.71%     74.29% |           5     14.29%     88.57% |           0      0.00%     88.57% |           0      0.00%     88.57% |           1      2.86%     91.43% |           0      0.00%     91.43% |           1      2.86%     94.29% |           2      5.71%    100.00%
system.ruby.L2Cache_Controller.MT_SB.L1_PUTX::total           35                      
system.ruby.L2Cache_Controller.MT_SB.Unblock |        1249      3.16%      3.16% |        1213      3.06%      6.22% |        1158      2.93%      9.15% |        1155      2.92%     12.06% |        1118      2.82%     14.89% |        1155      2.92%     17.81% |        1230      3.11%     20.91% |        1247      3.15%     24.06% |        1177      2.97%     27.04% |        1187      3.00%     30.04% |        1220      3.08%     33.12% |        1209      3.05%     36.17% |        1166      2.95%     39.12% |        1255      3.17%     42.29% |        1275      3.22%     45.51% |        1286      3.25%     48.76% |        1318      3.33%     52.09% |        1304      3.29%     55.39% |        1250      3.16%     58.54% |        1280      3.23%     61.78% |        1273      3.22%     64.99% |        1268      3.20%     68.20% |        1311      3.31%     71.51% |        1313      3.32%     74.83% |        1266      3.20%     78.02% |        1276      3.22%     81.25% |        1257      3.18%     84.42% |        1259      3.18%     87.61% |        1239      3.13%     90.74% |        1199      3.03%     93.76% |        1227      3.10%     96.86% |        1241      3.14%    100.00%
system.ruby.L2Cache_Controller.MT_SB.Unblock::total        39581                      
system.ruby.SimicsNetworkPortInterface_Controller.MessageSend |      438510     21.30%     21.30% |     1029503     50.00%     71.30% |      146588      7.12%     78.42% |      149904      7.28%     85.70% |      146076      7.09%     92.79% |      148425      7.21%    100.00% |           0      0.00%    100.00% |           0      0.00%    100.00% |           0      0.00%    100.00% |           0      0.00%    100.00% |           0      0.00%    100.00% |           0      0.00%    100.00% |           0      0.00%    100.00% |           0      0.00%    100.00% |           0      0.00%    100.00% |           0      0.00%    100.00% |           0      0.00%    100.00% |           0      0.00%    100.00% |           0      0.00%    100.00% |           0      0.00%    100.00% |           0      0.00%    100.00% |           0      0.00%    100.00% |           0      0.00%    100.00% |           0      0.00%    100.00% |           0      0.00%    100.00% |           0      0.00%    100.00% |           0      0.00%    100.00% |           0      0.00%    100.00% |           0      0.00%    100.00% |           0      0.00%    100.00% |           0      0.00%    100.00% |           0      0.00%    100.00%
system.ruby.SimicsNetworkPortInterface_Controller.MessageSend::total      2059006                      
system.ruby.SimicsNetworkPortInterface_Controller.MessageRecv |      438510     21.30%     21.30% |     1029503     50.00%     71.30% |      146588      7.12%     78.42% |      149904      7.28%     85.70% |      146076      7.09%     92.79% |      148425      7.21%    100.00% |           0      0.00%    100.00% |           0      0.00%    100.00% |           0      0.00%    100.00% |           0      0.00%    100.00% |           0      0.00%    100.00% |           0      0.00%    100.00% |           0      0.00%    100.00% |           0      0.00%    100.00% |           0      0.00%    100.00% |           0      0.00%    100.00% |           0      0.00%    100.00% |           0      0.00%    100.00% |           0      0.00%    100.00% |           0      0.00%    100.00% |           0      0.00%    100.00% |           0      0.00%    100.00% |           0      0.00%    100.00% |           0      0.00%    100.00% |           0      0.00%    100.00% |           0      0.00%    100.00% |           0      0.00%    100.00% |           0      0.00%    100.00% |           0      0.00%    100.00% |           0      0.00%    100.00% |           0      0.00%    100.00% |           0      0.00%    100.00%
system.ruby.SimicsNetworkPortInterface_Controller.MessageRecv::total      2059006                      
system.ruby.SimicsNetworkPortInterface_Controller.A.MessageSend |      438510     21.30%     21.30% |     1029503     50.00%     71.30% |      146588      7.12%     78.42% |      149904      7.28%     85.70% |      146076      7.09%     92.79% |      148425      7.21%    100.00% |           0      0.00%    100.00% |           0      0.00%    100.00% |           0      0.00%    100.00% |           0      0.00%    100.00% |           0      0.00%    100.00% |           0      0.00%    100.00% |           0      0.00%    100.00% |           0      0.00%    100.00% |           0      0.00%    100.00% |           0      0.00%    100.00% |           0      0.00%    100.00% |           0      0.00%    100.00% |           0      0.00%    100.00% |           0      0.00%    100.00% |           0      0.00%    100.00% |           0      0.00%    100.00% |           0      0.00%    100.00% |           0      0.00%    100.00% |           0      0.00%    100.00% |           0      0.00%    100.00% |           0      0.00%    100.00% |           0      0.00%    100.00% |           0      0.00%    100.00% |           0      0.00%    100.00% |           0      0.00%    100.00% |           0      0.00%    100.00%
system.ruby.SimicsNetworkPortInterface_Controller.A.MessageSend::total      2059006                      
system.ruby.SimicsNetworkPortInterface_Controller.A.MessageRecv |      438510     21.30%     21.30% |     1029503     50.00%     71.30% |      146588      7.12%     78.42% |      149904      7.28%     85.70% |      146076      7.09%     92.79% |      148425      7.21%    100.00% |           0      0.00%    100.00% |           0      0.00%    100.00% |           0      0.00%    100.00% |           0      0.00%    100.00% |           0      0.00%    100.00% |           0      0.00%    100.00% |           0      0.00%    100.00% |           0      0.00%    100.00% |           0      0.00%    100.00% |           0      0.00%    100.00% |           0      0.00%    100.00% |           0      0.00%    100.00% |           0      0.00%    100.00% |           0      0.00%    100.00% |           0      0.00%    100.00% |           0      0.00%    100.00% |           0      0.00%    100.00% |           0      0.00%    100.00% |           0      0.00%    100.00% |           0      0.00%    100.00% |           0      0.00%    100.00% |           0      0.00%    100.00% |           0      0.00%    100.00% |           0      0.00%    100.00% |           0      0.00%    100.00% |           0      0.00%    100.00%
system.ruby.SimicsNetworkPortInterface_Controller.A.MessageRecv::total      2059006                      
system.switch_cpus.kern.inst.arm                    0                       # number of arm instructions executed
system.switch_cpus.kern.inst.quiesce                0                       # number of quiesce instructions executed

---------- End Simulation Statistics   ----------
