
---------- Begin Simulation Statistics ----------
sim_seconds                                  0.038824                       # Number of seconds simulated
sim_ticks                                 38824095000                       # Number of ticks simulated
final_tick                               5214992173500                       # Number of ticks from beginning of simulation (restored from checkpoints and never reset)
sim_freq                                 1000000000000                       # Frequency of simulated ticks
host_inst_rate                                  50079                       # Simulator instruction rate (inst/s)
host_op_rate                                    88181                       # Simulator op (including micro ops) rate (op/s)
host_tick_rate                              107012022                       # Simulator tick rate (ticks/s)
host_mem_usage                                3224032                       # Number of bytes of host memory used
host_seconds                                   362.80                       # Real time elapsed on the host
sim_insts                                    18168828                       # Number of instructions simulated
sim_ops                                      31992124                       # Number of ops (including micro ops) simulated
system.voltage_domain.voltage                       1                       # Voltage in Volts
system.clk_domain.clock                           500                       # Clock period in ticks
system.mem_ctrls0.bytes_read::ruby.dir_cntrl0      4688768                       # Number of bytes read from this memory
system.mem_ctrls0.bytes_read::total           4688768                       # Number of bytes read from this memory
system.mem_ctrls0.bytes_written::ruby.dir_cntrl0      2862144                       # Number of bytes written to this memory
system.mem_ctrls0.bytes_written::total        2862144                       # Number of bytes written to this memory
system.mem_ctrls0.num_reads::ruby.dir_cntrl0        73262                       # Number of read requests responded to by this memory
system.mem_ctrls0.num_reads::total              73262                       # Number of read requests responded to by this memory
system.mem_ctrls0.num_writes::ruby.dir_cntrl0        44721                       # Number of write requests responded to by this memory
system.mem_ctrls0.num_writes::total             44721                       # Number of write requests responded to by this memory
system.mem_ctrls0.bw_read::ruby.dir_cntrl0    120769538                       # Total read bandwidth from this memory (bytes/s)
system.mem_ctrls0.bw_read::total            120769538                       # Total read bandwidth from this memory (bytes/s)
system.mem_ctrls0.bw_write::ruby.dir_cntrl0     73720817                       # Write bandwidth from this memory (bytes/s)
system.mem_ctrls0.bw_write::total            73720817                       # Write bandwidth from this memory (bytes/s)
system.mem_ctrls0.bw_total::ruby.dir_cntrl0    194490355                       # Total bandwidth to/from this memory (bytes/s)
system.mem_ctrls0.bw_total::total           194490355                       # Total bandwidth to/from this memory (bytes/s)
system.mem_ctrls0.readReqs                      73262                       # Number of read requests accepted
system.mem_ctrls0.writeReqs                     44721                       # Number of write requests accepted
system.mem_ctrls0.readBursts                    73262                       # Number of DRAM read bursts, including those serviced by the write queue
system.mem_ctrls0.writeBursts                   44721                       # Number of DRAM write bursts, including those merged in the write queue
system.mem_ctrls0.bytesReadDRAM               4687936                       # Total number of bytes read from DRAM
system.mem_ctrls0.bytesReadWrQ                    832                       # Total number of bytes read from write queue
system.mem_ctrls0.bytesWritten                2862080                       # Total number of bytes written to DRAM
system.mem_ctrls0.bytesReadSys                4688768                       # Total read bytes from the system interface side
system.mem_ctrls0.bytesWrittenSys             2862144                       # Total written bytes from the system interface side
system.mem_ctrls0.servicedByWrQ                    13                       # Number of DRAM read bursts serviced by the write queue
system.mem_ctrls0.mergedWrBursts                    0                       # Number of DRAM write bursts merged with an existing one
system.mem_ctrls0.neitherReadNorWriteReqs            0                       # Number of requests that are neither read nor write
system.mem_ctrls0.perBankRdBursts::0             4426                       # Per bank write bursts
system.mem_ctrls0.perBankRdBursts::1             4891                       # Per bank write bursts
system.mem_ctrls0.perBankRdBursts::2             4541                       # Per bank write bursts
system.mem_ctrls0.perBankRdBursts::3             4886                       # Per bank write bursts
system.mem_ctrls0.perBankRdBursts::4             4634                       # Per bank write bursts
system.mem_ctrls0.perBankRdBursts::5             4726                       # Per bank write bursts
system.mem_ctrls0.perBankRdBursts::6             4552                       # Per bank write bursts
system.mem_ctrls0.perBankRdBursts::7             4523                       # Per bank write bursts
system.mem_ctrls0.perBankRdBursts::8             4505                       # Per bank write bursts
system.mem_ctrls0.perBankRdBursts::9             4793                       # Per bank write bursts
system.mem_ctrls0.perBankRdBursts::10            4517                       # Per bank write bursts
system.mem_ctrls0.perBankRdBursts::11            4732                       # Per bank write bursts
system.mem_ctrls0.perBankRdBursts::12            4351                       # Per bank write bursts
system.mem_ctrls0.perBankRdBursts::13            4197                       # Per bank write bursts
system.mem_ctrls0.perBankRdBursts::14            4469                       # Per bank write bursts
system.mem_ctrls0.perBankRdBursts::15            4506                       # Per bank write bursts
system.mem_ctrls0.perBankWrBursts::0             2818                       # Per bank write bursts
system.mem_ctrls0.perBankWrBursts::1             2810                       # Per bank write bursts
system.mem_ctrls0.perBankWrBursts::2             2793                       # Per bank write bursts
system.mem_ctrls0.perBankWrBursts::3             2882                       # Per bank write bursts
system.mem_ctrls0.perBankWrBursts::4             2801                       # Per bank write bursts
system.mem_ctrls0.perBankWrBursts::5             2939                       # Per bank write bursts
system.mem_ctrls0.perBankWrBursts::6             2769                       # Per bank write bursts
system.mem_ctrls0.perBankWrBursts::7             2846                       # Per bank write bursts
system.mem_ctrls0.perBankWrBursts::8             2739                       # Per bank write bursts
system.mem_ctrls0.perBankWrBursts::9             2919                       # Per bank write bursts
system.mem_ctrls0.perBankWrBursts::10            2766                       # Per bank write bursts
system.mem_ctrls0.perBankWrBursts::11            2698                       # Per bank write bursts
system.mem_ctrls0.perBankWrBursts::12            2633                       # Per bank write bursts
system.mem_ctrls0.perBankWrBursts::13            2670                       # Per bank write bursts
system.mem_ctrls0.perBankWrBursts::14            2876                       # Per bank write bursts
system.mem_ctrls0.perBankWrBursts::15            2761                       # Per bank write bursts
system.mem_ctrls0.numRdRetry                      378                       # Number of times read queue was full causing retry
system.mem_ctrls0.numWrRetry                     2058                       # Number of times write queue was full causing retry
system.mem_ctrls0.totGap                  38823582500                       # Total gap between requests
system.mem_ctrls0.readPktSize::0                    0                       # Read request sizes (log2)
system.mem_ctrls0.readPktSize::1                    0                       # Read request sizes (log2)
system.mem_ctrls0.readPktSize::2                    0                       # Read request sizes (log2)
system.mem_ctrls0.readPktSize::3                    0                       # Read request sizes (log2)
system.mem_ctrls0.readPktSize::4                    0                       # Read request sizes (log2)
system.mem_ctrls0.readPktSize::5                    0                       # Read request sizes (log2)
system.mem_ctrls0.readPktSize::6                73262                       # Read request sizes (log2)
system.mem_ctrls0.writePktSize::0                   0                       # Write request sizes (log2)
system.mem_ctrls0.writePktSize::1                   0                       # Write request sizes (log2)
system.mem_ctrls0.writePktSize::2                   0                       # Write request sizes (log2)
system.mem_ctrls0.writePktSize::3                   0                       # Write request sizes (log2)
system.mem_ctrls0.writePktSize::4                   0                       # Write request sizes (log2)
system.mem_ctrls0.writePktSize::5                   0                       # Write request sizes (log2)
system.mem_ctrls0.writePktSize::6               44721                       # Write request sizes (log2)
system.mem_ctrls0.rdQLenPdf::0                  45684                       # What read queue length does an incoming req see
system.mem_ctrls0.rdQLenPdf::1                   4320                       # What read queue length does an incoming req see
system.mem_ctrls0.rdQLenPdf::2                   3503                       # What read queue length does an incoming req see
system.mem_ctrls0.rdQLenPdf::3                   2834                       # What read queue length does an incoming req see
system.mem_ctrls0.rdQLenPdf::4                   2394                       # What read queue length does an incoming req see
system.mem_ctrls0.rdQLenPdf::5                   1947                       # What read queue length does an incoming req see
system.mem_ctrls0.rdQLenPdf::6                   1621                       # What read queue length does an incoming req see
system.mem_ctrls0.rdQLenPdf::7                   1435                       # What read queue length does an incoming req see
system.mem_ctrls0.rdQLenPdf::8                   1193                       # What read queue length does an incoming req see
system.mem_ctrls0.rdQLenPdf::9                    963                       # What read queue length does an incoming req see
system.mem_ctrls0.rdQLenPdf::10                   847                       # What read queue length does an incoming req see
system.mem_ctrls0.rdQLenPdf::11                   758                       # What read queue length does an incoming req see
system.mem_ctrls0.rdQLenPdf::12                   667                       # What read queue length does an incoming req see
system.mem_ctrls0.rdQLenPdf::13                   597                       # What read queue length does an incoming req see
system.mem_ctrls0.rdQLenPdf::14                   472                       # What read queue length does an incoming req see
system.mem_ctrls0.rdQLenPdf::15                   398                       # What read queue length does an incoming req see
system.mem_ctrls0.rdQLenPdf::16                   379                       # What read queue length does an incoming req see
system.mem_ctrls0.rdQLenPdf::17                   345                       # What read queue length does an incoming req see
system.mem_ctrls0.rdQLenPdf::18                   298                       # What read queue length does an incoming req see
system.mem_ctrls0.rdQLenPdf::19                   265                       # What read queue length does an incoming req see
system.mem_ctrls0.rdQLenPdf::20                   242                       # What read queue length does an incoming req see
system.mem_ctrls0.rdQLenPdf::21                   230                       # What read queue length does an incoming req see
system.mem_ctrls0.rdQLenPdf::22                   217                       # What read queue length does an incoming req see
system.mem_ctrls0.rdQLenPdf::23                   192                       # What read queue length does an incoming req see
system.mem_ctrls0.rdQLenPdf::24                   166                       # What read queue length does an incoming req see
system.mem_ctrls0.rdQLenPdf::25                   165                       # What read queue length does an incoming req see
system.mem_ctrls0.rdQLenPdf::26                   148                       # What read queue length does an incoming req see
system.mem_ctrls0.rdQLenPdf::27                   136                       # What read queue length does an incoming req see
system.mem_ctrls0.rdQLenPdf::28                   132                       # What read queue length does an incoming req see
system.mem_ctrls0.rdQLenPdf::29                   108                       # What read queue length does an incoming req see
system.mem_ctrls0.rdQLenPdf::30                   114                       # What read queue length does an incoming req see
system.mem_ctrls0.rdQLenPdf::31                   479                       # What read queue length does an incoming req see
system.mem_ctrls0.wrQLenPdf::0                   7731                       # What write queue length does an incoming req see
system.mem_ctrls0.wrQLenPdf::1                   8025                       # What write queue length does an incoming req see
system.mem_ctrls0.wrQLenPdf::2                   8233                       # What write queue length does an incoming req see
system.mem_ctrls0.wrQLenPdf::3                   8297                       # What write queue length does an incoming req see
system.mem_ctrls0.wrQLenPdf::4                   8371                       # What write queue length does an incoming req see
system.mem_ctrls0.wrQLenPdf::5                    773                       # What write queue length does an incoming req see
system.mem_ctrls0.wrQLenPdf::6                    660                       # What write queue length does an incoming req see
system.mem_ctrls0.wrQLenPdf::7                   2631                       # What write queue length does an incoming req see
system.mem_ctrls0.bytesPerActivate::samples        32453                       # Bytes accessed per row activation
system.mem_ctrls0.bytesPerActivate::mean   232.632792                       # Bytes accessed per row activation
system.mem_ctrls0.bytesPerActivate::gmean   156.994271                       # Bytes accessed per row activation
system.mem_ctrls0.bytesPerActivate::stdev   233.936106                       # Bytes accessed per row activation
system.mem_ctrls0.bytesPerActivate::0-127        12688     39.10%     39.10% # Bytes accessed per row activation
system.mem_ctrls0.bytesPerActivate::128-255         7232     22.28%     61.38% # Bytes accessed per row activation
system.mem_ctrls0.bytesPerActivate::256-383         8074     24.88%     86.26% # Bytes accessed per row activation
system.mem_ctrls0.bytesPerActivate::384-511         1082      3.33%     89.59% # Bytes accessed per row activation
system.mem_ctrls0.bytesPerActivate::512-639          741      2.28%     91.88% # Bytes accessed per row activation
system.mem_ctrls0.bytesPerActivate::640-767          555      1.71%     93.59% # Bytes accessed per row activation
system.mem_ctrls0.bytesPerActivate::768-895          442      1.36%     94.95% # Bytes accessed per row activation
system.mem_ctrls0.bytesPerActivate::896-1023          432      1.33%     96.28% # Bytes accessed per row activation
system.mem_ctrls0.bytesPerActivate::1024-1151         1207      3.72%    100.00% # Bytes accessed per row activation
system.mem_ctrls0.bytesPerActivate::total        32453                       # Bytes accessed per row activation
system.mem_ctrls0.rdPerTurnAround::samples         7958                       # Reads before turning the bus around for writes
system.mem_ctrls0.rdPerTurnAround::mean      9.202689                       # Reads before turning the bus around for writes
system.mem_ctrls0.rdPerTurnAround::stdev    46.033715                       # Reads before turning the bus around for writes
system.mem_ctrls0.rdPerTurnAround::0-127         7951     99.91%     99.91% # Reads before turning the bus around for writes
system.mem_ctrls0.rdPerTurnAround::128-255            6      0.08%     99.99% # Reads before turning the bus around for writes
system.mem_ctrls0.rdPerTurnAround::3968-4095            1      0.01%    100.00% # Reads before turning the bus around for writes
system.mem_ctrls0.rdPerTurnAround::total         7958                       # Reads before turning the bus around for writes
system.mem_ctrls0.wrPerTurnAround::samples         7958                       # Writes before turning the bus around for reads
system.mem_ctrls0.wrPerTurnAround::mean      5.619502                       # Writes before turning the bus around for reads
system.mem_ctrls0.wrPerTurnAround::gmean     5.392577                       # Writes before turning the bus around for reads
system.mem_ctrls0.wrPerTurnAround::stdev     2.199256                       # Writes before turning the bus around for reads
system.mem_ctrls0.wrPerTurnAround::4-7           7432     93.39%     93.39% # Writes before turning the bus around for reads
system.mem_ctrls0.wrPerTurnAround::8-11           171      2.15%     95.54% # Writes before turning the bus around for reads
system.mem_ctrls0.wrPerTurnAround::12-15          106      1.33%     96.87% # Writes before turning the bus around for reads
system.mem_ctrls0.wrPerTurnAround::16-19          249      3.13%    100.00% # Writes before turning the bus around for reads
system.mem_ctrls0.wrPerTurnAround::total         7958                       # Writes before turning the bus around for reads
system.mem_ctrls0.totQLat                  3351747146                       # Total ticks spent queuing
system.mem_ctrls0.totMemAccLat             4725165896                       # Total ticks spent from burst creation until serviced by the DRAM
system.mem_ctrls0.totBusLat                 366245000                       # Total ticks spent in databus transfers
system.mem_ctrls0.avgQLat                    45758.26                       # Average queueing delay per DRAM burst
system.mem_ctrls0.avgBusLat                   5000.00                       # Average bus latency per DRAM burst
system.mem_ctrls0.avgMemAccLat               64508.26                       # Average memory access latency per DRAM burst
system.mem_ctrls0.avgRdBW                      120.75                       # Average DRAM read bandwidth in MiByte/s
system.mem_ctrls0.avgWrBW                       73.72                       # Average achieved write bandwidth in MiByte/s
system.mem_ctrls0.avgRdBWSys                   120.77                       # Average system read bandwidth in MiByte/s
system.mem_ctrls0.avgWrBWSys                    73.72                       # Average system write bandwidth in MiByte/s
system.mem_ctrls0.peakBW                     12800.00                       # Theoretical peak bandwidth in MiByte/s
system.mem_ctrls0.busUtil                        1.52                       # Data bus utilization in percentage
system.mem_ctrls0.busUtilRead                    0.94                       # Data bus utilization in percentage for reads
system.mem_ctrls0.busUtilWrite                   0.58                       # Data bus utilization in percentage for writes
system.mem_ctrls0.avgRdQLen                      1.11                       # Average read queue length when enqueuing
system.mem_ctrls0.avgWrQLen                      2.87                       # Average write queue length when enqueuing
system.mem_ctrls0.readRowHits                   56155                       # Number of row buffer hits during reads
system.mem_ctrls0.writeRowHits                  29359                       # Number of row buffer hits during writes
system.mem_ctrls0.readRowHitRate                76.66                       # Row buffer hit rate for reads
system.mem_ctrls0.writeRowHitRate               65.65                       # Row buffer hit rate for writes
system.mem_ctrls0.avgGap                    329060.82                       # Average gap between requests
system.mem_ctrls0.pageHitRate                   72.49                       # Row buffer hit rate, read and write combined
system.mem_ctrls0.memoryStateTime::IDLE   10429529250                       # Time in different power states
system.mem_ctrls0.memoryStateTime::REF     1296360000                       # Time in different power states
system.mem_ctrls0.memoryStateTime::PRE_PDN            0                       # Time in different power states
system.mem_ctrls0.memoryStateTime::ACT    27096627000                       # Time in different power states
system.mem_ctrls0.memoryStateTime::ACT_PDN            0                       # Time in different power states
system.mem_ctrls0.actEnergy::0              127227240                       # Energy for activate commands per rank (pJ)
system.mem_ctrls0.actEnergy::1              118117440                       # Energy for activate commands per rank (pJ)
system.mem_ctrls0.preEnergy::0               69419625                       # Energy for precharge commands per rank (pJ)
system.mem_ctrls0.preEnergy::1               64449000                       # Energy for precharge commands per rank (pJ)
system.mem_ctrls0.readEnergy::0             289996200                       # Energy for read commands per rank (pJ)
system.mem_ctrls0.readEnergy::1             281299200                       # Energy for read commands per rank (pJ)
system.mem_ctrls0.writeEnergy::0            146823840                       # Energy for write commands per rank (pJ)
system.mem_ctrls0.writeEnergy::1            142961760                       # Energy for write commands per rank (pJ)
system.mem_ctrls0.refreshEnergy::0         2535680160                       # Energy for refresh commands per rank (pJ)
system.mem_ctrls0.refreshEnergy::1         2535680160                       # Energy for refresh commands per rank (pJ)
system.mem_ctrls0.actBackEnergy::0        14172937425                       # Energy for active background per rank (pJ)
system.mem_ctrls0.actBackEnergy::1        13804984755                       # Energy for active background per rank (pJ)
system.mem_ctrls0.preBackEnergy::0        10861100250                       # Energy for precharge background per rank (pJ)
system.mem_ctrls0.preBackEnergy::1        11183865750                       # Energy for precharge background per rank (pJ)
system.mem_ctrls0.totalEnergy::0          28203184740                       # Total energy per rank (pJ)
system.mem_ctrls0.totalEnergy::1          28131358065                       # Total energy per rank (pJ)
system.mem_ctrls0.averagePower::0          726.464883                       # Core power per rank (mW)
system.mem_ctrls0.averagePower::1          724.614753                       # Core power per rank (mW)
system.mem_ctrls1.bytes_read::ruby.dir_cntrl1      4564288                       # Number of bytes read from this memory
system.mem_ctrls1.bytes_read::total           4564288                       # Number of bytes read from this memory
system.mem_ctrls1.bytes_written::ruby.dir_cntrl1      2746624                       # Number of bytes written to this memory
system.mem_ctrls1.bytes_written::total        2746624                       # Number of bytes written to this memory
system.mem_ctrls1.num_reads::ruby.dir_cntrl1        71317                       # Number of read requests responded to by this memory
system.mem_ctrls1.num_reads::total              71317                       # Number of read requests responded to by this memory
system.mem_ctrls1.num_writes::ruby.dir_cntrl1        42916                       # Number of write requests responded to by this memory
system.mem_ctrls1.num_writes::total             42916                       # Number of write requests responded to by this memory
system.mem_ctrls1.bw_read::ruby.dir_cntrl1    117563281                       # Total read bandwidth from this memory (bytes/s)
system.mem_ctrls1.bw_read::total            117563281                       # Total read bandwidth from this memory (bytes/s)
system.mem_ctrls1.bw_write::ruby.dir_cntrl1     70745345                       # Write bandwidth from this memory (bytes/s)
system.mem_ctrls1.bw_write::total            70745345                       # Write bandwidth from this memory (bytes/s)
system.mem_ctrls1.bw_total::ruby.dir_cntrl1    188308626                       # Total bandwidth to/from this memory (bytes/s)
system.mem_ctrls1.bw_total::total           188308626                       # Total bandwidth to/from this memory (bytes/s)
system.mem_ctrls1.readReqs                      71317                       # Number of read requests accepted
system.mem_ctrls1.writeReqs                     42916                       # Number of write requests accepted
system.mem_ctrls1.readBursts                    71317                       # Number of DRAM read bursts, including those serviced by the write queue
system.mem_ctrls1.writeBursts                   42916                       # Number of DRAM write bursts, including those merged in the write queue
system.mem_ctrls1.bytesReadDRAM               4563264                       # Total number of bytes read from DRAM
system.mem_ctrls1.bytesReadWrQ                   1024                       # Total number of bytes read from write queue
system.mem_ctrls1.bytesWritten                2746496                       # Total number of bytes written to DRAM
system.mem_ctrls1.bytesReadSys                4564288                       # Total read bytes from the system interface side
system.mem_ctrls1.bytesWrittenSys             2746624                       # Total written bytes from the system interface side
system.mem_ctrls1.servicedByWrQ                    16                       # Number of DRAM read bursts serviced by the write queue
system.mem_ctrls1.mergedWrBursts                    0                       # Number of DRAM write bursts merged with an existing one
system.mem_ctrls1.neitherReadNorWriteReqs            0                       # Number of requests that are neither read nor write
system.mem_ctrls1.perBankRdBursts::0             4309                       # Per bank write bursts
system.mem_ctrls1.perBankRdBursts::1             4752                       # Per bank write bursts
system.mem_ctrls1.perBankRdBursts::2             4420                       # Per bank write bursts
system.mem_ctrls1.perBankRdBursts::3             4767                       # Per bank write bursts
system.mem_ctrls1.perBankRdBursts::4             4524                       # Per bank write bursts
system.mem_ctrls1.perBankRdBursts::5             4631                       # Per bank write bursts
system.mem_ctrls1.perBankRdBursts::6             4426                       # Per bank write bursts
system.mem_ctrls1.perBankRdBursts::7             4426                       # Per bank write bursts
system.mem_ctrls1.perBankRdBursts::8             4376                       # Per bank write bursts
system.mem_ctrls1.perBankRdBursts::9             4671                       # Per bank write bursts
system.mem_ctrls1.perBankRdBursts::10            4400                       # Per bank write bursts
system.mem_ctrls1.perBankRdBursts::11            4614                       # Per bank write bursts
system.mem_ctrls1.perBankRdBursts::12            4228                       # Per bank write bursts
system.mem_ctrls1.perBankRdBursts::13            4084                       # Per bank write bursts
system.mem_ctrls1.perBankRdBursts::14            4274                       # Per bank write bursts
system.mem_ctrls1.perBankRdBursts::15            4399                       # Per bank write bursts
system.mem_ctrls1.perBankWrBursts::0             2710                       # Per bank write bursts
system.mem_ctrls1.perBankWrBursts::1             2714                       # Per bank write bursts
system.mem_ctrls1.perBankWrBursts::2             2691                       # Per bank write bursts
system.mem_ctrls1.perBankWrBursts::3             2773                       # Per bank write bursts
system.mem_ctrls1.perBankWrBursts::4             2699                       # Per bank write bursts
system.mem_ctrls1.perBankWrBursts::5             2831                       # Per bank write bursts
system.mem_ctrls1.perBankWrBursts::6             2643                       # Per bank write bursts
system.mem_ctrls1.perBankWrBursts::7             2732                       # Per bank write bursts
system.mem_ctrls1.perBankWrBursts::8             2629                       # Per bank write bursts
system.mem_ctrls1.perBankWrBursts::9             2805                       # Per bank write bursts
system.mem_ctrls1.perBankWrBursts::10            2661                       # Per bank write bursts
system.mem_ctrls1.perBankWrBursts::11            2586                       # Per bank write bursts
system.mem_ctrls1.perBankWrBursts::12            2527                       # Per bank write bursts
system.mem_ctrls1.perBankWrBursts::13            2553                       # Per bank write bursts
system.mem_ctrls1.perBankWrBursts::14            2708                       # Per bank write bursts
system.mem_ctrls1.perBankWrBursts::15            2652                       # Per bank write bursts
system.mem_ctrls1.numRdRetry                      300                       # Number of times read queue was full causing retry
system.mem_ctrls1.numWrRetry                     1987                       # Number of times write queue was full causing retry
system.mem_ctrls1.totGap                  38823330500                       # Total gap between requests
system.mem_ctrls1.readPktSize::0                    0                       # Read request sizes (log2)
system.mem_ctrls1.readPktSize::1                    0                       # Read request sizes (log2)
system.mem_ctrls1.readPktSize::2                    0                       # Read request sizes (log2)
system.mem_ctrls1.readPktSize::3                    0                       # Read request sizes (log2)
system.mem_ctrls1.readPktSize::4                    0                       # Read request sizes (log2)
system.mem_ctrls1.readPktSize::5                    0                       # Read request sizes (log2)
system.mem_ctrls1.readPktSize::6                71317                       # Read request sizes (log2)
system.mem_ctrls1.writePktSize::0                   0                       # Write request sizes (log2)
system.mem_ctrls1.writePktSize::1                   0                       # Write request sizes (log2)
system.mem_ctrls1.writePktSize::2                   0                       # Write request sizes (log2)
system.mem_ctrls1.writePktSize::3                   0                       # Write request sizes (log2)
system.mem_ctrls1.writePktSize::4                   0                       # Write request sizes (log2)
system.mem_ctrls1.writePktSize::5                   0                       # Write request sizes (log2)
system.mem_ctrls1.writePktSize::6               42916                       # Write request sizes (log2)
system.mem_ctrls1.rdQLenPdf::0                  44742                       # What read queue length does an incoming req see
system.mem_ctrls1.rdQLenPdf::1                   3664                       # What read queue length does an incoming req see
system.mem_ctrls1.rdQLenPdf::2                   3255                       # What read queue length does an incoming req see
system.mem_ctrls1.rdQLenPdf::3                   2924                       # What read queue length does an incoming req see
system.mem_ctrls1.rdQLenPdf::4                   2368                       # What read queue length does an incoming req see
system.mem_ctrls1.rdQLenPdf::5                   2045                       # What read queue length does an incoming req see
system.mem_ctrls1.rdQLenPdf::6                   1709                       # What read queue length does an incoming req see
system.mem_ctrls1.rdQLenPdf::7                   1482                       # What read queue length does an incoming req see
system.mem_ctrls1.rdQLenPdf::8                   1217                       # What read queue length does an incoming req see
system.mem_ctrls1.rdQLenPdf::9                   1109                       # What read queue length does an incoming req see
system.mem_ctrls1.rdQLenPdf::10                   878                       # What read queue length does an incoming req see
system.mem_ctrls1.rdQLenPdf::11                   787                       # What read queue length does an incoming req see
system.mem_ctrls1.rdQLenPdf::12                   652                       # What read queue length does an incoming req see
system.mem_ctrls1.rdQLenPdf::13                   550                       # What read queue length does an incoming req see
system.mem_ctrls1.rdQLenPdf::14                   462                       # What read queue length does an incoming req see
system.mem_ctrls1.rdQLenPdf::15                   407                       # What read queue length does an incoming req see
system.mem_ctrls1.rdQLenPdf::16                   347                       # What read queue length does an incoming req see
system.mem_ctrls1.rdQLenPdf::17                   324                       # What read queue length does an incoming req see
system.mem_ctrls1.rdQLenPdf::18                   233                       # What read queue length does an incoming req see
system.mem_ctrls1.rdQLenPdf::19                   232                       # What read queue length does an incoming req see
system.mem_ctrls1.rdQLenPdf::20                   203                       # What read queue length does an incoming req see
system.mem_ctrls1.rdQLenPdf::21                   175                       # What read queue length does an incoming req see
system.mem_ctrls1.rdQLenPdf::22                   176                       # What read queue length does an incoming req see
system.mem_ctrls1.rdQLenPdf::23                   153                       # What read queue length does an incoming req see
system.mem_ctrls1.rdQLenPdf::24                   139                       # What read queue length does an incoming req see
system.mem_ctrls1.rdQLenPdf::25                   128                       # What read queue length does an incoming req see
system.mem_ctrls1.rdQLenPdf::26                   125                       # What read queue length does an incoming req see
system.mem_ctrls1.rdQLenPdf::27                   118                       # What read queue length does an incoming req see
system.mem_ctrls1.rdQLenPdf::28                   104                       # What read queue length does an incoming req see
system.mem_ctrls1.rdQLenPdf::29                   102                       # What read queue length does an incoming req see
system.mem_ctrls1.rdQLenPdf::30                    96                       # What read queue length does an incoming req see
system.mem_ctrls1.rdQLenPdf::31                   395                       # What read queue length does an incoming req see
system.mem_ctrls1.wrQLenPdf::0                   7458                       # What write queue length does an incoming req see
system.mem_ctrls1.wrQLenPdf::1                   7687                       # What write queue length does an incoming req see
system.mem_ctrls1.wrQLenPdf::2                   7843                       # What write queue length does an incoming req see
system.mem_ctrls1.wrQLenPdf::3                   7915                       # What write queue length does an incoming req see
system.mem_ctrls1.wrQLenPdf::4                   8003                       # What write queue length does an incoming req see
system.mem_ctrls1.wrQLenPdf::5                    774                       # What write queue length does an incoming req see
system.mem_ctrls1.wrQLenPdf::6                    624                       # What write queue length does an incoming req see
system.mem_ctrls1.wrQLenPdf::7                   2612                       # What write queue length does an incoming req see
system.mem_ctrls1.bytesPerActivate::samples        28645                       # Bytes accessed per row activation
system.mem_ctrls1.bytesPerActivate::mean   255.159923                       # Bytes accessed per row activation
system.mem_ctrls1.bytesPerActivate::gmean   175.670056                       # Bytes accessed per row activation
system.mem_ctrls1.bytesPerActivate::stdev   240.340810                       # Bytes accessed per row activation
system.mem_ctrls1.bytesPerActivate::0-127         9324     32.55%     32.55% # Bytes accessed per row activation
system.mem_ctrls1.bytesPerActivate::128-255         6672     23.29%     55.84% # Bytes accessed per row activation
system.mem_ctrls1.bytesPerActivate::256-383         8017     27.99%     83.83% # Bytes accessed per row activation
system.mem_ctrls1.bytesPerActivate::384-511         1144      3.99%     87.82% # Bytes accessed per row activation
system.mem_ctrls1.bytesPerActivate::512-639          854      2.98%     90.80% # Bytes accessed per row activation
system.mem_ctrls1.bytesPerActivate::640-767          571      1.99%     92.80% # Bytes accessed per row activation
system.mem_ctrls1.bytesPerActivate::768-895          457      1.60%     94.39% # Bytes accessed per row activation
system.mem_ctrls1.bytesPerActivate::896-1023          495      1.73%     96.12% # Bytes accessed per row activation
system.mem_ctrls1.bytesPerActivate::1024-1151         1111      3.88%    100.00% # Bytes accessed per row activation
system.mem_ctrls1.bytesPerActivate::total        28645                       # Bytes accessed per row activation
system.mem_ctrls1.rdPerTurnAround::samples         7663                       # Reads before turning the bus around for writes
system.mem_ctrls1.rdPerTurnAround::mean      9.301057                       # Reads before turning the bus around for writes
system.mem_ctrls1.rdPerTurnAround::stdev    37.334653                       # Reads before turning the bus around for writes
system.mem_ctrls1.rdPerTurnAround::0-127         7655     99.90%     99.90% # Reads before turning the bus around for writes
system.mem_ctrls1.rdPerTurnAround::128-255            6      0.08%     99.97% # Reads before turning the bus around for writes
system.mem_ctrls1.rdPerTurnAround::1152-1279            1      0.01%     99.99% # Reads before turning the bus around for writes
system.mem_ctrls1.rdPerTurnAround::2816-2943            1      0.01%    100.00% # Reads before turning the bus around for writes
system.mem_ctrls1.rdPerTurnAround::total         7663                       # Reads before turning the bus around for writes
system.mem_ctrls1.wrPerTurnAround::samples         7663                       # Writes before turning the bus around for reads
system.mem_ctrls1.wrPerTurnAround::mean      5.600157                       # Writes before turning the bus around for reads
system.mem_ctrls1.wrPerTurnAround::gmean     5.375684                       # Writes before turning the bus around for reads
system.mem_ctrls1.wrPerTurnAround::stdev     2.184605                       # Writes before turning the bus around for reads
system.mem_ctrls1.wrPerTurnAround::4-7           7156     93.38%     93.38% # Writes before turning the bus around for reads
system.mem_ctrls1.wrPerTurnAround::8-11           168      2.19%     95.58% # Writes before turning the bus around for reads
system.mem_ctrls1.wrPerTurnAround::12-15          113      1.47%     97.05% # Writes before turning the bus around for reads
system.mem_ctrls1.wrPerTurnAround::16-19          226      2.95%    100.00% # Writes before turning the bus around for reads
system.mem_ctrls1.wrPerTurnAround::total         7663                       # Writes before turning the bus around for reads
system.mem_ctrls1.totQLat                  2995324815                       # Total ticks spent queuing
system.mem_ctrls1.totMemAccLat             4332218565                       # Total ticks spent from burst creation until serviced by the DRAM
system.mem_ctrls1.totBusLat                 356505000                       # Total ticks spent in databus transfers
system.mem_ctrls1.avgQLat                    42009.58                       # Average queueing delay per DRAM burst
system.mem_ctrls1.avgBusLat                   5000.00                       # Average bus latency per DRAM burst
system.mem_ctrls1.avgMemAccLat               60759.58                       # Average memory access latency per DRAM burst
system.mem_ctrls1.avgRdBW                      117.54                       # Average DRAM read bandwidth in MiByte/s
system.mem_ctrls1.avgWrBW                       70.74                       # Average achieved write bandwidth in MiByte/s
system.mem_ctrls1.avgRdBWSys                   117.56                       # Average system read bandwidth in MiByte/s
system.mem_ctrls1.avgWrBWSys                    70.75                       # Average system write bandwidth in MiByte/s
system.mem_ctrls1.peakBW                     12800.00                       # Theoretical peak bandwidth in MiByte/s
system.mem_ctrls1.busUtil                        1.47                       # Data bus utilization in percentage
system.mem_ctrls1.busUtilRead                    0.92                       # Data bus utilization in percentage for reads
system.mem_ctrls1.busUtilWrite                   0.55                       # Data bus utilization in percentage for writes
system.mem_ctrls1.avgRdQLen                      1.11                       # Average read queue length when enqueuing
system.mem_ctrls1.avgWrQLen                      2.86                       # Average write queue length when enqueuing
system.mem_ctrls1.readRowHits                   55776                       # Number of row buffer hits during reads
system.mem_ctrls1.writeRowHits                  29791                       # Number of row buffer hits during writes
system.mem_ctrls1.readRowHitRate                78.23                       # Row buffer hit rate for reads
system.mem_ctrls1.writeRowHitRate               69.42                       # Row buffer hit rate for writes
system.mem_ctrls1.avgGap                    339860.90                       # Average gap between requests
system.mem_ctrls1.pageHitRate                   74.92                       # Row buffer hit rate, read and write combined
system.mem_ctrls1.memoryStateTime::IDLE   10617688000                       # Time in different power states
system.mem_ctrls1.memoryStateTime::REF     1296360000                       # Time in different power states
system.mem_ctrls1.memoryStateTime::PRE_PDN            0                       # Time in different power states
system.mem_ctrls1.memoryStateTime::ACT    26908468250                       # Time in different power states
system.mem_ctrls1.memoryStateTime::ACT_PDN            0                       # Time in different power states
system.mem_ctrls1.actEnergy::0              112825440                       # Energy for activate commands per rank (pJ)
system.mem_ctrls1.actEnergy::1              103730760                       # Energy for activate commands per rank (pJ)
system.mem_ctrls1.preEnergy::0               61561500                       # Energy for precharge commands per rank (pJ)
system.mem_ctrls1.preEnergy::1               56599125                       # Energy for precharge commands per rank (pJ)
system.mem_ctrls1.readEnergy::0             282757800                       # Energy for read commands per rank (pJ)
system.mem_ctrls1.readEnergy::1             273304200                       # Energy for read commands per rank (pJ)
system.mem_ctrls1.writeEnergy::0            141218640                       # Energy for write commands per rank (pJ)
system.mem_ctrls1.writeEnergy::1            136864080                       # Energy for write commands per rank (pJ)
system.mem_ctrls1.refreshEnergy::0         2535680160                       # Energy for refresh commands per rank (pJ)
system.mem_ctrls1.refreshEnergy::1         2535680160                       # Energy for refresh commands per rank (pJ)
system.mem_ctrls1.actBackEnergy::0        14040884385                       # Energy for active background per rank (pJ)
system.mem_ctrls1.actBackEnergy::1        13368468780                       # Energy for active background per rank (pJ)
system.mem_ctrls1.preBackEnergy::0        10976936250                       # Energy for precharge background per rank (pJ)
system.mem_ctrls1.preBackEnergy::1        11566774500                       # Energy for precharge background per rank (pJ)
system.mem_ctrls1.totalEnergy::0          28151864175                       # Total energy per rank (pJ)
system.mem_ctrls1.totalEnergy::1          28041421605                       # Total energy per rank (pJ)
system.mem_ctrls1.averagePower::0          725.142955                       # Core power per rank (mW)
system.mem_ctrls1.averagePower::1          722.298147                       # Core power per rank (mW)
system.mem_ctrls2.bytes_read::ruby.dir_cntrl2      4566720                       # Number of bytes read from this memory
system.mem_ctrls2.bytes_read::total           4566720                       # Number of bytes read from this memory
system.mem_ctrls2.bytes_written::ruby.dir_cntrl2      2748160                       # Number of bytes written to this memory
system.mem_ctrls2.bytes_written::total        2748160                       # Number of bytes written to this memory
system.mem_ctrls2.num_reads::ruby.dir_cntrl2        71355                       # Number of read requests responded to by this memory
system.mem_ctrls2.num_reads::total              71355                       # Number of read requests responded to by this memory
system.mem_ctrls2.num_writes::ruby.dir_cntrl2        42940                       # Number of write requests responded to by this memory
system.mem_ctrls2.num_writes::total             42940                       # Number of write requests responded to by this memory
system.mem_ctrls2.bw_read::ruby.dir_cntrl2    117625923                       # Total read bandwidth from this memory (bytes/s)
system.mem_ctrls2.bw_read::total            117625923                       # Total read bandwidth from this memory (bytes/s)
system.mem_ctrls2.bw_write::ruby.dir_cntrl2     70784908                       # Write bandwidth from this memory (bytes/s)
system.mem_ctrls2.bw_write::total            70784908                       # Write bandwidth from this memory (bytes/s)
system.mem_ctrls2.bw_total::ruby.dir_cntrl2    188410831                       # Total bandwidth to/from this memory (bytes/s)
system.mem_ctrls2.bw_total::total           188410831                       # Total bandwidth to/from this memory (bytes/s)
system.mem_ctrls2.readReqs                      71355                       # Number of read requests accepted
system.mem_ctrls2.writeReqs                     42940                       # Number of write requests accepted
system.mem_ctrls2.readBursts                    71355                       # Number of DRAM read bursts, including those serviced by the write queue
system.mem_ctrls2.writeBursts                   42940                       # Number of DRAM write bursts, including those merged in the write queue
system.mem_ctrls2.bytesReadDRAM               4565696                       # Total number of bytes read from DRAM
system.mem_ctrls2.bytesReadWrQ                   1024                       # Total number of bytes read from write queue
system.mem_ctrls2.bytesWritten                2748032                       # Total number of bytes written to DRAM
system.mem_ctrls2.bytesReadSys                4566720                       # Total read bytes from the system interface side
system.mem_ctrls2.bytesWrittenSys             2748160                       # Total written bytes from the system interface side
system.mem_ctrls2.servicedByWrQ                    16                       # Number of DRAM read bursts serviced by the write queue
system.mem_ctrls2.mergedWrBursts                    0                       # Number of DRAM write bursts merged with an existing one
system.mem_ctrls2.neitherReadNorWriteReqs            0                       # Number of requests that are neither read nor write
system.mem_ctrls2.perBankRdBursts::0             4292                       # Per bank write bursts
system.mem_ctrls2.perBankRdBursts::1             4781                       # Per bank write bursts
system.mem_ctrls2.perBankRdBursts::2             4434                       # Per bank write bursts
system.mem_ctrls2.perBankRdBursts::3             4798                       # Per bank write bursts
system.mem_ctrls2.perBankRdBursts::4             4535                       # Per bank write bursts
system.mem_ctrls2.perBankRdBursts::5             4626                       # Per bank write bursts
system.mem_ctrls2.perBankRdBursts::6             4419                       # Per bank write bursts
system.mem_ctrls2.perBankRdBursts::7             4419                       # Per bank write bursts
system.mem_ctrls2.perBankRdBursts::8             4357                       # Per bank write bursts
system.mem_ctrls2.perBankRdBursts::9             4653                       # Per bank write bursts
system.mem_ctrls2.perBankRdBursts::10            4395                       # Per bank write bursts
system.mem_ctrls2.perBankRdBursts::11            4651                       # Per bank write bursts
system.mem_ctrls2.perBankRdBursts::12            4240                       # Per bank write bursts
system.mem_ctrls2.perBankRdBursts::13            4073                       # Per bank write bursts
system.mem_ctrls2.perBankRdBursts::14            4263                       # Per bank write bursts
system.mem_ctrls2.perBankRdBursts::15            4403                       # Per bank write bursts
system.mem_ctrls2.perBankWrBursts::0             2703                       # Per bank write bursts
system.mem_ctrls2.perBankWrBursts::1             2712                       # Per bank write bursts
system.mem_ctrls2.perBankWrBursts::2             2688                       # Per bank write bursts
system.mem_ctrls2.perBankWrBursts::3             2789                       # Per bank write bursts
system.mem_ctrls2.perBankWrBursts::4             2697                       # Per bank write bursts
system.mem_ctrls2.perBankWrBursts::5             2821                       # Per bank write bursts
system.mem_ctrls2.perBankWrBursts::6             2646                       # Per bank write bursts
system.mem_ctrls2.perBankWrBursts::7             2734                       # Per bank write bursts
system.mem_ctrls2.perBankWrBursts::8             2629                       # Per bank write bursts
system.mem_ctrls2.perBankWrBursts::9             2811                       # Per bank write bursts
system.mem_ctrls2.perBankWrBursts::10            2656                       # Per bank write bursts
system.mem_ctrls2.perBankWrBursts::11            2599                       # Per bank write bursts
system.mem_ctrls2.perBankWrBursts::12            2536                       # Per bank write bursts
system.mem_ctrls2.perBankWrBursts::13            2548                       # Per bank write bursts
system.mem_ctrls2.perBankWrBursts::14            2715                       # Per bank write bursts
system.mem_ctrls2.perBankWrBursts::15            2654                       # Per bank write bursts
system.mem_ctrls2.numRdRetry                      379                       # Number of times read queue was full causing retry
system.mem_ctrls2.numWrRetry                     1989                       # Number of times write queue was full causing retry
system.mem_ctrls2.totGap                  38823570000                       # Total gap between requests
system.mem_ctrls2.readPktSize::0                    0                       # Read request sizes (log2)
system.mem_ctrls2.readPktSize::1                    0                       # Read request sizes (log2)
system.mem_ctrls2.readPktSize::2                    0                       # Read request sizes (log2)
system.mem_ctrls2.readPktSize::3                    0                       # Read request sizes (log2)
system.mem_ctrls2.readPktSize::4                    0                       # Read request sizes (log2)
system.mem_ctrls2.readPktSize::5                    0                       # Read request sizes (log2)
system.mem_ctrls2.readPktSize::6                71355                       # Read request sizes (log2)
system.mem_ctrls2.writePktSize::0                   0                       # Write request sizes (log2)
system.mem_ctrls2.writePktSize::1                   0                       # Write request sizes (log2)
system.mem_ctrls2.writePktSize::2                   0                       # Write request sizes (log2)
system.mem_ctrls2.writePktSize::3                   0                       # Write request sizes (log2)
system.mem_ctrls2.writePktSize::4                   0                       # Write request sizes (log2)
system.mem_ctrls2.writePktSize::5                   0                       # Write request sizes (log2)
system.mem_ctrls2.writePktSize::6               42940                       # Write request sizes (log2)
system.mem_ctrls2.rdQLenPdf::0                  44952                       # What read queue length does an incoming req see
system.mem_ctrls2.rdQLenPdf::1                   3847                       # What read queue length does an incoming req see
system.mem_ctrls2.rdQLenPdf::2                   3412                       # What read queue length does an incoming req see
system.mem_ctrls2.rdQLenPdf::3                   2990                       # What read queue length does an incoming req see
system.mem_ctrls2.rdQLenPdf::4                   2485                       # What read queue length does an incoming req see
system.mem_ctrls2.rdQLenPdf::5                   1965                       # What read queue length does an incoming req see
system.mem_ctrls2.rdQLenPdf::6                   1575                       # What read queue length does an incoming req see
system.mem_ctrls2.rdQLenPdf::7                   1318                       # What read queue length does an incoming req see
system.mem_ctrls2.rdQLenPdf::8                   1125                       # What read queue length does an incoming req see
system.mem_ctrls2.rdQLenPdf::9                    954                       # What read queue length does an incoming req see
system.mem_ctrls2.rdQLenPdf::10                   867                       # What read queue length does an incoming req see
system.mem_ctrls2.rdQLenPdf::11                   727                       # What read queue length does an incoming req see
system.mem_ctrls2.rdQLenPdf::12                   623                       # What read queue length does an incoming req see
system.mem_ctrls2.rdQLenPdf::13                   538                       # What read queue length does an incoming req see
system.mem_ctrls2.rdQLenPdf::14                   456                       # What read queue length does an incoming req see
system.mem_ctrls2.rdQLenPdf::15                   375                       # What read queue length does an incoming req see
system.mem_ctrls2.rdQLenPdf::16                   347                       # What read queue length does an incoming req see
system.mem_ctrls2.rdQLenPdf::17                   288                       # What read queue length does an incoming req see
system.mem_ctrls2.rdQLenPdf::18                   269                       # What read queue length does an incoming req see
system.mem_ctrls2.rdQLenPdf::19                   219                       # What read queue length does an incoming req see
system.mem_ctrls2.rdQLenPdf::20                   193                       # What read queue length does an incoming req see
system.mem_ctrls2.rdQLenPdf::21                   179                       # What read queue length does an incoming req see
system.mem_ctrls2.rdQLenPdf::22                   171                       # What read queue length does an incoming req see
system.mem_ctrls2.rdQLenPdf::23                   161                       # What read queue length does an incoming req see
system.mem_ctrls2.rdQLenPdf::24                   160                       # What read queue length does an incoming req see
system.mem_ctrls2.rdQLenPdf::25                   137                       # What read queue length does an incoming req see
system.mem_ctrls2.rdQLenPdf::26                   123                       # What read queue length does an incoming req see
system.mem_ctrls2.rdQLenPdf::27                   109                       # What read queue length does an incoming req see
system.mem_ctrls2.rdQLenPdf::28                   106                       # What read queue length does an incoming req see
system.mem_ctrls2.rdQLenPdf::29                   100                       # What read queue length does an incoming req see
system.mem_ctrls2.rdQLenPdf::30                   102                       # What read queue length does an incoming req see
system.mem_ctrls2.rdQLenPdf::31                   466                       # What read queue length does an incoming req see
system.mem_ctrls2.wrQLenPdf::0                   7465                       # What write queue length does an incoming req see
system.mem_ctrls2.wrQLenPdf::1                   7724                       # What write queue length does an incoming req see
system.mem_ctrls2.wrQLenPdf::2                   7827                       # What write queue length does an incoming req see
system.mem_ctrls2.wrQLenPdf::3                   7906                       # What write queue length does an incoming req see
system.mem_ctrls2.wrQLenPdf::4                   8038                       # What write queue length does an incoming req see
system.mem_ctrls2.wrQLenPdf::5                    785                       # What write queue length does an incoming req see
system.mem_ctrls2.wrQLenPdf::6                    640                       # What write queue length does an incoming req see
system.mem_ctrls2.wrQLenPdf::7                   2555                       # What write queue length does an incoming req see
system.mem_ctrls2.bytesPerActivate::samples        28665                       # Bytes accessed per row activation
system.mem_ctrls2.bytesPerActivate::mean   255.129252                       # Bytes accessed per row activation
system.mem_ctrls2.bytesPerActivate::gmean   175.893179                       # Bytes accessed per row activation
system.mem_ctrls2.bytesPerActivate::stdev   239.581421                       # Bytes accessed per row activation
system.mem_ctrls2.bytesPerActivate::0-127         9363     32.66%     32.66% # Bytes accessed per row activation
system.mem_ctrls2.bytesPerActivate::128-255         6538     22.81%     55.47% # Bytes accessed per row activation
system.mem_ctrls2.bytesPerActivate::256-383         8193     28.58%     84.05% # Bytes accessed per row activation
system.mem_ctrls2.bytesPerActivate::384-511         1115      3.89%     87.94% # Bytes accessed per row activation
system.mem_ctrls2.bytesPerActivate::512-639          820      2.86%     90.80% # Bytes accessed per row activation
system.mem_ctrls2.bytesPerActivate::640-767          606      2.11%     92.92% # Bytes accessed per row activation
system.mem_ctrls2.bytesPerActivate::768-895          470      1.64%     94.56% # Bytes accessed per row activation
system.mem_ctrls2.bytesPerActivate::896-1023          414      1.44%     96.00% # Bytes accessed per row activation
system.mem_ctrls2.bytesPerActivate::1024-1151         1146      4.00%    100.00% # Bytes accessed per row activation
system.mem_ctrls2.bytesPerActivate::total        28665                       # Bytes accessed per row activation
system.mem_ctrls2.rdPerTurnAround::samples         7672                       # Reads before turning the bus around for writes
system.mem_ctrls2.rdPerTurnAround::mean      9.295490                       # Reads before turning the bus around for writes
system.mem_ctrls2.rdPerTurnAround::stdev    37.431262                       # Reads before turning the bus around for writes
system.mem_ctrls2.rdPerTurnAround::0-127         7667     99.93%     99.93% # Reads before turning the bus around for writes
system.mem_ctrls2.rdPerTurnAround::128-255            3      0.04%     99.97% # Reads before turning the bus around for writes
system.mem_ctrls2.rdPerTurnAround::1152-1279            1      0.01%     99.99% # Reads before turning the bus around for writes
system.mem_ctrls2.rdPerTurnAround::2816-2943            1      0.01%    100.00% # Reads before turning the bus around for writes
system.mem_ctrls2.rdPerTurnAround::total         7672                       # Reads before turning the bus around for writes
system.mem_ctrls2.wrPerTurnAround::samples         7672                       # Writes before turning the bus around for reads
system.mem_ctrls2.wrPerTurnAround::mean      5.596715                       # Writes before turning the bus around for reads
system.mem_ctrls2.wrPerTurnAround::gmean     5.374949                       # Writes before turning the bus around for reads
system.mem_ctrls2.wrPerTurnAround::stdev     2.172710                       # Writes before turning the bus around for reads
system.mem_ctrls2.wrPerTurnAround::4-7           7168     93.43%     93.43% # Writes before turning the bus around for reads
system.mem_ctrls2.wrPerTurnAround::8-11           176      2.29%     95.72% # Writes before turning the bus around for reads
system.mem_ctrls2.wrPerTurnAround::12-15           96      1.25%     96.98% # Writes before turning the bus around for reads
system.mem_ctrls2.wrPerTurnAround::16-19          232      3.02%    100.00% # Writes before turning the bus around for reads
system.mem_ctrls2.wrPerTurnAround::total         7672                       # Writes before turning the bus around for reads
system.mem_ctrls2.totQLat                  3042865018                       # Total ticks spent queuing
system.mem_ctrls2.totMemAccLat             4380471268                       # Total ticks spent from burst creation until serviced by the DRAM
system.mem_ctrls2.totBusLat                 356695000                       # Total ticks spent in databus transfers
system.mem_ctrls2.avgQLat                    42653.60                       # Average queueing delay per DRAM burst
system.mem_ctrls2.avgBusLat                   5000.00                       # Average bus latency per DRAM burst
system.mem_ctrls2.avgMemAccLat               61403.60                       # Average memory access latency per DRAM burst
system.mem_ctrls2.avgRdBW                      117.60                       # Average DRAM read bandwidth in MiByte/s
system.mem_ctrls2.avgWrBW                       70.78                       # Average achieved write bandwidth in MiByte/s
system.mem_ctrls2.avgRdBWSys                   117.63                       # Average system read bandwidth in MiByte/s
system.mem_ctrls2.avgWrBWSys                    70.78                       # Average system write bandwidth in MiByte/s
system.mem_ctrls2.peakBW                     12800.00                       # Theoretical peak bandwidth in MiByte/s
system.mem_ctrls2.busUtil                        1.47                       # Data bus utilization in percentage
system.mem_ctrls2.busUtilRead                    0.92                       # Data bus utilization in percentage for reads
system.mem_ctrls2.busUtilWrite                   0.55                       # Data bus utilization in percentage for writes
system.mem_ctrls2.avgRdQLen                      1.10                       # Average read queue length when enqueuing
system.mem_ctrls2.avgWrQLen                      2.88                       # Average write queue length when enqueuing
system.mem_ctrls2.readRowHits                   55748                       # Number of row buffer hits during reads
system.mem_ctrls2.writeRowHits                  29861                       # Number of row buffer hits during writes
system.mem_ctrls2.readRowHitRate                78.15                       # Row buffer hit rate for reads
system.mem_ctrls2.writeRowHitRate               69.54                       # Row buffer hit rate for writes
system.mem_ctrls2.avgGap                    339678.64                       # Average gap between requests
system.mem_ctrls2.pageHitRate                   74.91                       # Row buffer hit rate, read and write combined
system.mem_ctrls2.memoryStateTime::IDLE   10522935000                       # Time in different power states
system.mem_ctrls2.memoryStateTime::REF     1296360000                       # Time in different power states
system.mem_ctrls2.memoryStateTime::PRE_PDN            0                       # Time in different power states
system.mem_ctrls2.memoryStateTime::ACT    27003221250                       # Time in different power states
system.mem_ctrls2.memoryStateTime::ACT_PDN            0                       # Time in different power states
system.mem_ctrls2.actEnergy::0              113022000                       # Energy for activate commands per rank (pJ)
system.mem_ctrls2.actEnergy::1              103685400                       # Energy for activate commands per rank (pJ)
system.mem_ctrls2.preEnergy::0               61668750                       # Energy for precharge commands per rank (pJ)
system.mem_ctrls2.preEnergy::1               56574375                       # Energy for precharge commands per rank (pJ)
system.mem_ctrls2.readEnergy::0             283140000                       # Energy for read commands per rank (pJ)
system.mem_ctrls2.readEnergy::1             273249600                       # Energy for read commands per rank (pJ)
system.mem_ctrls2.writeEnergy::0            141199200                       # Energy for write commands per rank (pJ)
system.mem_ctrls2.writeEnergy::1            137039040                       # Energy for write commands per rank (pJ)
system.mem_ctrls2.refreshEnergy::0         2535680160                       # Energy for refresh commands per rank (pJ)
system.mem_ctrls2.refreshEnergy::1         2535680160                       # Energy for refresh commands per rank (pJ)
system.mem_ctrls2.actBackEnergy::0        14090680440                       # Energy for active background per rank (pJ)
system.mem_ctrls2.actBackEnergy::1        13443139350                       # Energy for active background per rank (pJ)
system.mem_ctrls2.preBackEnergy::0        10933255500                       # Energy for precharge background per rank (pJ)
system.mem_ctrls2.preBackEnergy::1        11501274000                       # Energy for precharge background per rank (pJ)
system.mem_ctrls2.totalEnergy::0          28158646050                       # Total energy per rank (pJ)
system.mem_ctrls2.totalEnergy::1          28050641925                       # Total energy per rank (pJ)
system.mem_ctrls2.averagePower::0          725.317644                       # Core power per rank (mW)
system.mem_ctrls2.averagePower::1          722.535646                       # Core power per rank (mW)
system.mem_ctrls3.bytes_read::ruby.dir_cntrl3      4548544                       # Number of bytes read from this memory
system.mem_ctrls3.bytes_read::total           4548544                       # Number of bytes read from this memory
system.mem_ctrls3.bytes_written::ruby.dir_cntrl3      2743616                       # Number of bytes written to this memory
system.mem_ctrls3.bytes_written::total        2743616                       # Number of bytes written to this memory
system.mem_ctrls3.num_reads::ruby.dir_cntrl3        71071                       # Number of read requests responded to by this memory
system.mem_ctrls3.num_reads::total              71071                       # Number of read requests responded to by this memory
system.mem_ctrls3.num_writes::ruby.dir_cntrl3        42869                       # Number of write requests responded to by this memory
system.mem_ctrls3.num_writes::total             42869                       # Number of write requests responded to by this memory
system.mem_ctrls3.bw_read::ruby.dir_cntrl3    117157760                       # Total read bandwidth from this memory (bytes/s)
system.mem_ctrls3.bw_read::total            117157760                       # Total read bandwidth from this memory (bytes/s)
system.mem_ctrls3.bw_write::ruby.dir_cntrl3     70667867                       # Write bandwidth from this memory (bytes/s)
system.mem_ctrls3.bw_write::total            70667867                       # Write bandwidth from this memory (bytes/s)
system.mem_ctrls3.bw_total::ruby.dir_cntrl3    187825627                       # Total bandwidth to/from this memory (bytes/s)
system.mem_ctrls3.bw_total::total           187825627                       # Total bandwidth to/from this memory (bytes/s)
system.mem_ctrls3.readReqs                      71072                       # Number of read requests accepted
system.mem_ctrls3.writeReqs                     42869                       # Number of write requests accepted
system.mem_ctrls3.readBursts                    71072                       # Number of DRAM read bursts, including those serviced by the write queue
system.mem_ctrls3.writeBursts                   42869                       # Number of DRAM write bursts, including those merged in the write queue
system.mem_ctrls3.bytesReadDRAM               4548160                       # Total number of bytes read from DRAM
system.mem_ctrls3.bytesReadWrQ                    448                       # Total number of bytes read from write queue
system.mem_ctrls3.bytesWritten                2743360                       # Total number of bytes written to DRAM
system.mem_ctrls3.bytesReadSys                4548608                       # Total read bytes from the system interface side
system.mem_ctrls3.bytesWrittenSys             2743616                       # Total written bytes from the system interface side
system.mem_ctrls3.servicedByWrQ                     7                       # Number of DRAM read bursts serviced by the write queue
system.mem_ctrls3.mergedWrBursts                    0                       # Number of DRAM write bursts merged with an existing one
system.mem_ctrls3.neitherReadNorWriteReqs            0                       # Number of requests that are neither read nor write
system.mem_ctrls3.perBankRdBursts::0             4281                       # Per bank write bursts
system.mem_ctrls3.perBankRdBursts::1             4737                       # Per bank write bursts
system.mem_ctrls3.perBankRdBursts::2             4407                       # Per bank write bursts
system.mem_ctrls3.perBankRdBursts::3             4759                       # Per bank write bursts
system.mem_ctrls3.perBankRdBursts::4             4487                       # Per bank write bursts
system.mem_ctrls3.perBankRdBursts::5             4595                       # Per bank write bursts
system.mem_ctrls3.perBankRdBursts::6             4405                       # Per bank write bursts
system.mem_ctrls3.perBankRdBursts::7             4417                       # Per bank write bursts
system.mem_ctrls3.perBankRdBursts::8             4365                       # Per bank write bursts
system.mem_ctrls3.perBankRdBursts::9             4633                       # Per bank write bursts
system.mem_ctrls3.perBankRdBursts::10            4406                       # Per bank write bursts
system.mem_ctrls3.perBankRdBursts::11            4620                       # Per bank write bursts
system.mem_ctrls3.perBankRdBursts::12            4224                       # Per bank write bursts
system.mem_ctrls3.perBankRdBursts::13            4052                       # Per bank write bursts
system.mem_ctrls3.perBankRdBursts::14            4276                       # Per bank write bursts
system.mem_ctrls3.perBankRdBursts::15            4401                       # Per bank write bursts
system.mem_ctrls3.perBankWrBursts::0             2708                       # Per bank write bursts
system.mem_ctrls3.perBankWrBursts::1             2700                       # Per bank write bursts
system.mem_ctrls3.perBankWrBursts::2             2689                       # Per bank write bursts
system.mem_ctrls3.perBankWrBursts::3             2773                       # Per bank write bursts
system.mem_ctrls3.perBankWrBursts::4             2690                       # Per bank write bursts
system.mem_ctrls3.perBankWrBursts::5             2815                       # Per bank write bursts
system.mem_ctrls3.perBankWrBursts::6             2639                       # Per bank write bursts
system.mem_ctrls3.perBankWrBursts::7             2726                       # Per bank write bursts
system.mem_ctrls3.perBankWrBursts::8             2625                       # Per bank write bursts
system.mem_ctrls3.perBankWrBursts::9             2804                       # Per bank write bursts
system.mem_ctrls3.perBankWrBursts::10            2651                       # Per bank write bursts
system.mem_ctrls3.perBankWrBursts::11            2605                       # Per bank write bursts
system.mem_ctrls3.perBankWrBursts::12            2530                       # Per bank write bursts
system.mem_ctrls3.perBankWrBursts::13            2555                       # Per bank write bursts
system.mem_ctrls3.perBankWrBursts::14            2707                       # Per bank write bursts
system.mem_ctrls3.perBankWrBursts::15            2648                       # Per bank write bursts
system.mem_ctrls3.numRdRetry                      342                       # Number of times read queue was full causing retry
system.mem_ctrls3.numWrRetry                     2404                       # Number of times write queue was full causing retry
system.mem_ctrls3.totGap                  38823352000                       # Total gap between requests
system.mem_ctrls3.readPktSize::0                    0                       # Read request sizes (log2)
system.mem_ctrls3.readPktSize::1                    0                       # Read request sizes (log2)
system.mem_ctrls3.readPktSize::2                    0                       # Read request sizes (log2)
system.mem_ctrls3.readPktSize::3                    0                       # Read request sizes (log2)
system.mem_ctrls3.readPktSize::4                    0                       # Read request sizes (log2)
system.mem_ctrls3.readPktSize::5                    0                       # Read request sizes (log2)
system.mem_ctrls3.readPktSize::6                71072                       # Read request sizes (log2)
system.mem_ctrls3.writePktSize::0                   0                       # Write request sizes (log2)
system.mem_ctrls3.writePktSize::1                   0                       # Write request sizes (log2)
system.mem_ctrls3.writePktSize::2                   0                       # Write request sizes (log2)
system.mem_ctrls3.writePktSize::3                   0                       # Write request sizes (log2)
system.mem_ctrls3.writePktSize::4                   0                       # Write request sizes (log2)
system.mem_ctrls3.writePktSize::5                   0                       # Write request sizes (log2)
system.mem_ctrls3.writePktSize::6               42869                       # Write request sizes (log2)
system.mem_ctrls3.rdQLenPdf::0                  44456                       # What read queue length does an incoming req see
system.mem_ctrls3.rdQLenPdf::1                   3284                       # What read queue length does an incoming req see
system.mem_ctrls3.rdQLenPdf::2                   2927                       # What read queue length does an incoming req see
system.mem_ctrls3.rdQLenPdf::3                   2764                       # What read queue length does an incoming req see
system.mem_ctrls3.rdQLenPdf::4                   2432                       # What read queue length does an incoming req see
system.mem_ctrls3.rdQLenPdf::5                   2065                       # What read queue length does an incoming req see
system.mem_ctrls3.rdQLenPdf::6                   1665                       # What read queue length does an incoming req see
system.mem_ctrls3.rdQLenPdf::7                   1469                       # What read queue length does an incoming req see
system.mem_ctrls3.rdQLenPdf::8                   1229                       # What read queue length does an incoming req see
system.mem_ctrls3.rdQLenPdf::9                   1099                       # What read queue length does an incoming req see
system.mem_ctrls3.rdQLenPdf::10                   924                       # What read queue length does an incoming req see
system.mem_ctrls3.rdQLenPdf::11                   832                       # What read queue length does an incoming req see
system.mem_ctrls3.rdQLenPdf::12                   706                       # What read queue length does an incoming req see
system.mem_ctrls3.rdQLenPdf::13                   626                       # What read queue length does an incoming req see
system.mem_ctrls3.rdQLenPdf::14                   530                       # What read queue length does an incoming req see
system.mem_ctrls3.rdQLenPdf::15                   480                       # What read queue length does an incoming req see
system.mem_ctrls3.rdQLenPdf::16                   425                       # What read queue length does an incoming req see
system.mem_ctrls3.rdQLenPdf::17                   408                       # What read queue length does an incoming req see
system.mem_ctrls3.rdQLenPdf::18                   319                       # What read queue length does an incoming req see
system.mem_ctrls3.rdQLenPdf::19                   270                       # What read queue length does an incoming req see
system.mem_ctrls3.rdQLenPdf::20                   256                       # What read queue length does an incoming req see
system.mem_ctrls3.rdQLenPdf::21                   229                       # What read queue length does an incoming req see
system.mem_ctrls3.rdQLenPdf::22                   204                       # What read queue length does an incoming req see
system.mem_ctrls3.rdQLenPdf::23                   161                       # What read queue length does an incoming req see
system.mem_ctrls3.rdQLenPdf::24                   155                       # What read queue length does an incoming req see
[...]
system.ruby.L2Cache_Controller.IM.L1_GETX::total            3                      
system.ruby.L2Cache_Controller.IM.Mem_Data |        4705      3.12%      3.12% |        4697      3.12%      6.24% |        4706      3.12%      9.37% |        4713      3.13%     12.50% |        4704      3.12%     15.62% |        4711      3.13%     18.75% |        4710      3.13%     21.88% |        4694      3.12%     24.99% |        4710      3.13%     28.12% |        4711      3.13%     31.25% |        4696      3.12%     34.37% |        4715      3.13%     37.50% |        4700      3.12%     40.62% |        4703      3.12%     43.74% |        4702      3.12%     46.86% |        4698      3.12%     49.98% |        4716      3.13%     53.11% |        4710      3.13%     56.24% |        4712      3.13%     59.37% |        4706      3.12%     62.50% |        4709      3.13%     65.62% |        4723      3.14%     68.76% |        4701      3.12%     71.88% |        4707      3.13%     75.01% |        4720      3.13%     78.14% |        4710      3.13%     81.27% |        4716      3.13%     84.40% |        4702      3.12%     87.52% |        4703      3.12%     90.64% |        4699      3.12%     93.76% |        4703      3.12%     96.89% |        4688      3.11%    100.00%
system.ruby.L2Cache_Controller.IM.Mem_Data::total       150600                      
system.ruby.L2Cache_Controller.SS_MB.Exclusive_Unblock |           3      6.82%      6.82% |           6     13.64%     20.45% |           3      6.82%     27.27% |           4      9.09%     36.36% |           0      0.00%     36.36% |           0      0.00%     36.36% |           0      0.00%     36.36% |           0      0.00%     36.36% |           0      0.00%     36.36% |           0      0.00%     36.36% |           0      0.00%     36.36% |           0      0.00%     36.36% |           3      6.82%     43.18% |           0      0.00%     43.18% |           4      9.09%     52.27% |           0      0.00%     52.27% |           1      2.27%     54.55% |           0      0.00%     54.55% |          11     25.00%     79.55% |           2      4.55%     84.09% |           0      0.00%     84.09% |           1      2.27%     86.36% |           0      0.00%     86.36% |           1      2.27%     88.64% |           1      2.27%     90.91% |           0      0.00%     90.91% |           1      2.27%     93.18% |           2      4.55%     97.73% |           1      2.27%    100.00% |           0      0.00%    100.00% |           0      0.00%    100.00% |           0      0.00%    100.00%
system.ruby.L2Cache_Controller.SS_MB.Exclusive_Unblock::total           44                      
system.ruby.L2Cache_Controller.MT_MB.L1_GETS |           1     50.00%     50.00% |           0      0.00%     50.00% |           0      0.00%     50.00% |           0      0.00%     50.00% |           0      0.00%     50.00% |           0      0.00%     50.00% |           0      0.00%     50.00% |           0      0.00%     50.00% |           0      0.00%     50.00% |           0      0.00%     50.00% |           0      0.00%     50.00% |           0      0.00%     50.00% |           0      0.00%     50.00% |           0      0.00%     50.00% |           0      0.00%     50.00% |           0      0.00%     50.00% |           1     50.00%    100.00% |           0      0.00%    100.00% |           0      0.00%    100.00% |           0      0.00%    100.00% |           0      0.00%    100.00% |           0      0.00%    100.00% |           0      0.00%    100.00% |           0      0.00%    100.00% |           0      0.00%    100.00% |           0      0.00%    100.00% |           0      0.00%    100.00% |           0      0.00%    100.00% |           0      0.00%    100.00% |           0      0.00%    100.00% |           0      0.00%    100.00% |           0      0.00%    100.00%
system.ruby.L2Cache_Controller.MT_MB.L1_GETS::total            2                      
system.ruby.L2Cache_Controller.MT_MB.L1_GETX |           1    100.00%    100.00% |           0      0.00%    100.00% |           0      0.00%    100.00% |           0      0.00%    100.00% |           0      0.00%    100.00% |           0      0.00%    100.00% |           0      0.00%    100.00% |           0      0.00%    100.00% |           0      0.00%    100.00% |           0      0.00%    100.00% |           0      0.00%    100.00% |           0      0.00%    100.00% |           0      0.00%    100.00% |           0      0.00%    100.00% |           0      0.00%    100.00% |           0      0.00%    100.00% |           0      0.00%    100.00% |           0      0.00%    100.00% |           0      0.00%    100.00% |           0      0.00%    100.00% |           0      0.00%    100.00% |           0      0.00%    100.00% |           0      0.00%    100.00% |           0      0.00%    100.00% |           0      0.00%    100.00% |           0      0.00%    100.00% |           0      0.00%    100.00% |           0      0.00%    100.00% |           0      0.00%    100.00% |           0      0.00%    100.00% |           0      0.00%    100.00% |           0      0.00%    100.00%
system.ruby.L2Cache_Controller.MT_MB.L1_GETX::total            1                      
system.ruby.L2Cache_Controller.MT_MB.Exclusive_Unblock |       60409     12.23%     12.23% |       15538      3.15%     15.38% |       12748      2.58%     17.96% |       14800      3.00%     20.96% |       13334      2.70%     23.66% |       12717      2.57%     26.23% |       12240      2.48%     28.71% |       12902      2.61%     31.32% |       13097      2.65%     33.97% |       12757      2.58%     36.56% |       15512      3.14%     39.70% |       15760      3.19%     42.89% |       14128      2.86%     45.75% |       13215      2.68%     48.42% |       12000      2.43%     50.85% |       12462      2.52%     53.38% |       13963      2.83%     56.20% |       12805      2.59%     58.80% |       13228      2.68%     61.47% |       14224      2.88%     64.35% |       14904      3.02%     67.37% |       15872      3.21%     70.59% |       13722      2.78%     73.36% |       13754      2.78%     76.15% |       13835      2.80%     78.95% |       13398      2.71%     81.66% |       13250      2.68%     84.35% |       12958      2.62%     86.97% |       15563      3.15%     90.12% |       13986      2.83%     92.95% |       16357      3.31%     96.26% |       18447      3.74%    100.00%
system.ruby.L2Cache_Controller.MT_MB.Exclusive_Unblock::total       493885                      
system.ruby.L2Cache_Controller.MT_IIB.L1_PUTX |           1     33.33%     33.33% |           0      0.00%     33.33% |           0      0.00%     33.33% |           0      0.00%     33.33% |           0      0.00%     33.33% |           0      0.00%     33.33% |           0      0.00%     33.33% |           0      0.00%     33.33% |           0      0.00%     33.33% |           0      0.00%     33.33% |           0      0.00%     33.33% |           0      0.00%     33.33% |           0      0.00%     33.33% |           0      0.00%     33.33% |           0      0.00%     33.33% |           0      0.00%     33.33% |           2     66.67%    100.00% |           0      0.00%    100.00% |           0      0.00%    100.00% |           0      0.00%    100.00% |           0      0.00%    100.00% |           0      0.00%    100.00% |           0      0.00%    100.00% |           0      0.00%    100.00% |           0      0.00%    100.00% |           0      0.00%    100.00% |           0      0.00%    100.00% |           0      0.00%    100.00% |           0      0.00%    100.00% |           0      0.00%    100.00% |           0      0.00%    100.00% |           0      0.00%    100.00%
system.ruby.L2Cache_Controller.MT_IIB.L1_PUTX::total            3                      
system.ruby.L2Cache_Controller.MT_IIB.WB_Data |           0      0.00%      0.00% |           1     20.00%     20.00% |           1     20.00%     40.00% |           1     20.00%     60.00% |           0      0.00%     60.00% |           0      0.00%     60.00% |           1     20.00%     80.00% |           0      0.00%     80.00% |           0      0.00%     80.00% |           1     20.00%    100.00% |           0      0.00%    100.00% |           0      0.00%    100.00% |           0      0.00%    100.00% |           0      0.00%    100.00% |           0      0.00%    100.00% |           0      0.00%    100.00% |           0      0.00%    100.00% |           0      0.00%    100.00% |           0      0.00%    100.00% |           0      0.00%    100.00% |           0      0.00%    100.00% |           0      0.00%    100.00% |           0      0.00%    100.00% |           0      0.00%    100.00% |           0      0.00%    100.00% |           0      0.00%    100.00% |           0      0.00%    100.00% |           0      0.00%    100.00% |           0      0.00%    100.00% |           0      0.00%    100.00% |           0      0.00%    100.00% |           0      0.00%    100.00%
system.ruby.L2Cache_Controller.MT_IIB.WB_Data::total            5                      
system.ruby.L2Cache_Controller.MT_IIB.WB_Data_clean |        3003     51.32%     51.32% |           0      0.00%     51.32% |           0      0.00%     51.32% |           0      0.00%     51.32% |           0      0.00%     51.32% |           0      0.00%     51.32% |           0      0.00%     51.32% |           0      0.00%     51.32% |           0      0.00%     51.32% |           0      0.00%     51.32% |           0      0.00%     51.32% |           0      0.00%     51.32% |           0      0.00%     51.32% |           0      0.00%     51.32% |           0      0.00%     51.32% |           0      0.00%     51.32% |        2848     48.68%    100.00% |           0      0.00%    100.00% |           0      0.00%    100.00% |           0      0.00%    100.00% |           0      0.00%    100.00% |           0      0.00%    100.00% |           0      0.00%    100.00% |           0      0.00%    100.00% |           0      0.00%    100.00% |           0      0.00%    100.00% |           0      0.00%    100.00% |           0      0.00%    100.00% |           0      0.00%    100.00% |           0      0.00%    100.00% |           0      0.00%    100.00% |           0      0.00%    100.00%
system.ruby.L2Cache_Controller.MT_IIB.WB_Data_clean::total         5851                      
system.ruby.L2Cache_Controller.MT_IIB.Unblock |          47     18.65%     18.65% |           0      0.00%     18.65% |           0      0.00%     18.65% |           0      0.00%     18.65% |           0      0.00%     18.65% |           0      0.00%     18.65% |           0      0.00%     18.65% |           0      0.00%     18.65% |           0      0.00%     18.65% |           0      0.00%     18.65% |           0      0.00%     18.65% |           0      0.00%     18.65% |           0      0.00%     18.65% |           0      0.00%     18.65% |           0      0.00%     18.65% |           0      0.00%     18.65% |         205     81.35%    100.00% |           0      0.00%    100.00% |           0      0.00%    100.00% |           0      0.00%    100.00% |           0      0.00%    100.00% |           0      0.00%    100.00% |           0      0.00%    100.00% |           0      0.00%    100.00% |           0      0.00%    100.00% |           0      0.00%    100.00% |           0      0.00%    100.00% |           0      0.00%    100.00% |           0      0.00%    100.00% |           0      0.00%    100.00% |           0      0.00%    100.00% |           0      0.00%    100.00%
system.ruby.L2Cache_Controller.MT_IIB.Unblock::total          252                      
system.ruby.L2Cache_Controller.MT_IB.WB_Data_clean |          47     18.65%     18.65% |           0      0.00%     18.65% |           0      0.00%     18.65% |           0      0.00%     18.65% |           0      0.00%     18.65% |           0      0.00%     18.65% |           0      0.00%     18.65% |           0      0.00%     18.65% |           0      0.00%     18.65% |           0      0.00%     18.65% |           0      0.00%     18.65% |           0      0.00%     18.65% |           0      0.00%     18.65% |           0      0.00%     18.65% |           0      0.00%     18.65% |           0      0.00%     18.65% |         205     81.35%    100.00% |           0      0.00%    100.00% |           0      0.00%    100.00% |           0      0.00%    100.00% |           0      0.00%    100.00% |           0      0.00%    100.00% |           0      0.00%    100.00% |           0      0.00%    100.00% |           0      0.00%    100.00% |           0      0.00%    100.00% |           0      0.00%    100.00% |           0      0.00%    100.00% |           0      0.00%    100.00% |           0      0.00%    100.00% |           0      0.00%    100.00% |           0      0.00%    100.00%
system.ruby.L2Cache_Controller.MT_IB.WB_Data_clean::total          252                      
system.ruby.L2Cache_Controller.MT_SB.Unblock |        3003     51.28%     51.28% |           1      0.02%     51.30% |           1      0.02%     51.31% |           1      0.02%     51.33% |           0      0.00%     51.33% |           0      0.00%     51.33% |           1      0.02%     51.35% |           0      0.00%     51.35% |           0      0.00%     51.35% |           1      0.02%     51.37% |           0      0.00%     51.37% |           0      0.00%     51.37% |           0      0.00%     51.37% |           0      0.00%     51.37% |           0      0.00%     51.37% |           0      0.00%     51.37% |        2848     48.63%    100.00% |           0      0.00%    100.00% |           0      0.00%    100.00% |           0      0.00%    100.00% |           0      0.00%    100.00% |           0      0.00%    100.00% |           0      0.00%    100.00% |           0      0.00%    100.00% |           0      0.00%    100.00% |           0      0.00%    100.00% |           0      0.00%    100.00% |           0      0.00%    100.00% |           0      0.00%    100.00% |           0      0.00%    100.00% |           0      0.00%    100.00% |           0      0.00%    100.00%
system.ruby.L2Cache_Controller.MT_SB.Unblock::total         5856                      
system.ruby.SimicsNetworkPortInterface_Controller.MessageSend |       16573     10.36%     10.36% |       80011     50.00%     60.36% |        8257      5.16%     65.52% |        7570      4.73%     70.25% |        8068      5.04%     75.29% |        8167      5.10%     80.39% |        7529      4.70%     85.10% |        7858      4.91%     90.01% |        8034      5.02%     95.03% |        7955      4.97%    100.00% |           0      0.00%    100.00% |           0      0.00%    100.00% |           0      0.00%    100.00% |           0      0.00%    100.00% |           0      0.00%    100.00% |           0      0.00%    100.00% |           0      0.00%    100.00% |           0      0.00%    100.00% |           0      0.00%    100.00% |           0      0.00%    100.00% |           0      0.00%    100.00% |           0      0.00%    100.00% |           0      0.00%    100.00% |           0      0.00%    100.00% |           0      0.00%    100.00% |           0      0.00%    100.00% |           0      0.00%    100.00% |           0      0.00%    100.00% |           0      0.00%    100.00% |           0      0.00%    100.00% |           0      0.00%    100.00% |           0      0.00%    100.00%
system.ruby.SimicsNetworkPortInterface_Controller.MessageSend::total       160022                      
system.ruby.SimicsNetworkPortInterface_Controller.MessageRecv |       16573     10.36%     10.36% |       80011     50.00%     60.36% |        8257      5.16%     65.52% |        7570      4.73%     70.25% |        8068      5.04%     75.29% |        8167      5.10%     80.39% |        7529      4.70%     85.10% |        7858      4.91%     90.01% |        8034      5.02%     95.03% |        7955      4.97%    100.00% |           0      0.00%    100.00% |           0      0.00%    100.00% |           0      0.00%    100.00% |           0      0.00%    100.00% |           0      0.00%    100.00% |           0      0.00%    100.00% |           0      0.00%    100.00% |           0      0.00%    100.00% |           0      0.00%    100.00% |           0      0.00%    100.00% |           0      0.00%    100.00% |           0      0.00%    100.00% |           0      0.00%    100.00% |           0      0.00%    100.00% |           0      0.00%    100.00% |           0      0.00%    100.00% |           0      0.00%    100.00% |           0      0.00%    100.00% |           0      0.00%    100.00% |           0      0.00%    100.00% |           0      0.00%    100.00% |           0      0.00%    100.00%
system.ruby.SimicsNetworkPortInterface_Controller.MessageRecv::total       160022                      
system.ruby.SimicsNetworkPortInterface_Controller.A.MessageSend |       16573     10.36%     10.36% |       80011     50.00%     60.36% |        8257      5.16%     65.52% |        7570      4.73%     70.25% |        8068      5.04%     75.29% |        8167      5.10%     80.39% |        7529      4.70%     85.10% |        7858      4.91%     90.01% |        8034      5.02%     95.03% |        7955      4.97%    100.00% |           0      0.00%    100.00% |           0      0.00%    100.00% |           0      0.00%    100.00% |           0      0.00%    100.00% |           0      0.00%    100.00% |           0      0.00%    100.00% |           0      0.00%    100.00% |           0      0.00%    100.00% |           0      0.00%    100.00% |           0      0.00%    100.00% |           0      0.00%    100.00% |           0      0.00%    100.00% |           0      0.00%    100.00% |           0      0.00%    100.00% |           0      0.00%    100.00% |           0      0.00%    100.00% |           0      0.00%    100.00% |           0      0.00%    100.00% |           0      0.00%    100.00% |           0      0.00%    100.00% |           0      0.00%    100.00% |           0      0.00%    100.00%
system.ruby.SimicsNetworkPortInterface_Controller.A.MessageSend::total       160022                      
system.ruby.SimicsNetworkPortInterface_Controller.A.MessageRecv |       16573     10.36%     10.36% |       80011     50.00%     60.36% |        8257      5.16%     65.52% |        7570      4.73%     70.25% |        8068      5.04%     75.29% |        8167      5.10%     80.39% |        7529      4.70%     85.10% |        7858      4.91%     90.01% |        8034      5.02%     95.03% |        7955      4.97%    100.00% |           0      0.00%    100.00% |           0      0.00%    100.00% |           0      0.00%    100.00% |           0      0.00%    100.00% |           0      0.00%    100.00% |           0      0.00%    100.00% |           0      0.00%    100.00% |           0      0.00%    100.00% |           0      0.00%    100.00% |           0      0.00%    100.00% |           0      0.00%    100.00% |           0      0.00%    100.00% |           0      0.00%    100.00% |           0      0.00%    100.00% |           0      0.00%    100.00% |           0      0.00%    100.00% |           0      0.00%    100.00% |           0      0.00%    100.00% |           0      0.00%    100.00% |           0      0.00%    100.00% |           0      0.00%    100.00% |           0      0.00%    100.00%
system.ruby.SimicsNetworkPortInterface_Controller.A.MessageRecv::total       160022                      
system.switch_cpus.kern.inst.arm                    0                       # number of arm instructions executed
system.switch_cpus.kern.inst.quiesce                0                       # number of quiesce instructions executed

---------- End Simulation Statistics   ----------
