
---------- Begin Simulation Statistics ----------
sim_seconds                                  0.093339                       # Number of seconds simulated
sim_ticks                                 93338577500                       # Number of ticks simulated
final_tick                               5269506656000                       # Number of ticks from beginning of simulation (restored from checkpoints and never reset)
sim_freq                                 1000000000000                       # Frequency of simulated ticks
host_inst_rate                                  51169                       # Simulator instruction rate (inst/s)
host_op_rate                                    90256                       # Simulator op (including micro ops) rate (op/s)
host_tick_rate                              112133748                       # Simulator tick rate (ticks/s)
host_mem_usage                                6065628                       # Number of bytes of host memory used
host_seconds                                   832.39                       # Real time elapsed on the host
sim_insts                                    42592411                       # Number of instructions simulated
sim_ops                                      75127526                       # Number of ops (including micro ops) simulated
system.voltage_domain.voltage                       1                       # Voltage in Volts
system.clk_domain.clock                           500                       # Clock period in ticks
system.mem_ctrls0.bytes_read::ruby.dir_cntrl0     21114880                       # Number of bytes read from this memory
system.mem_ctrls0.bytes_read::total          21114880                       # Number of bytes read from this memory
system.mem_ctrls0.bytes_written::ruby.dir_cntrl0     11912576                       # Number of bytes written to this memory
system.mem_ctrls0.bytes_written::total       11912576                       # Number of bytes written to this memory
system.mem_ctrls0.num_reads::ruby.dir_cntrl0       329920                       # Number of read requests responded to by this memory
system.mem_ctrls0.num_reads::total             329920                       # Number of read requests responded to by this memory
system.mem_ctrls0.num_writes::ruby.dir_cntrl0       186134                       # Number of write requests responded to by this memory
system.mem_ctrls0.num_writes::total            186134                       # Number of write requests responded to by this memory
system.mem_ctrls0.bw_read::ruby.dir_cntrl0    226218147                       # Total read bandwidth from this memory (bytes/s)
system.mem_ctrls0.bw_read::total            226218147                       # Total read bandwidth from this memory (bytes/s)
system.mem_ctrls0.bw_write::ruby.dir_cntrl0    127627572                       # Write bandwidth from this memory (bytes/s)
system.mem_ctrls0.bw_write::total           127627572                       # Write bandwidth from this memory (bytes/s)
system.mem_ctrls0.bw_total::ruby.dir_cntrl0    353845718                       # Total bandwidth to/from this memory (bytes/s)
system.mem_ctrls0.bw_total::total           353845718                       # Total bandwidth to/from this memory (bytes/s)
system.mem_ctrls0.readReqs                     329920                       # Number of read requests accepted
system.mem_ctrls0.writeReqs                    186134                       # Number of write requests accepted
system.mem_ctrls0.readBursts                   329920                       # Number of DRAM read bursts, including those serviced by the write queue
system.mem_ctrls0.writeBursts                  186134                       # Number of DRAM write bursts, including those merged in the write queue
system.mem_ctrls0.bytesReadDRAM              21112384                       # Total number of bytes read from DRAM
system.mem_ctrls0.bytesReadWrQ                   2496                       # Total number of bytes read from write queue
system.mem_ctrls0.bytesWritten               11912320                       # Total number of bytes written to DRAM
system.mem_ctrls0.bytesReadSys               21114880                       # Total read bytes from the system interface side
system.mem_ctrls0.bytesWrittenSys            11912576                       # Total written bytes from the system interface side
system.mem_ctrls0.servicedByWrQ                    39                       # Number of DRAM read bursts serviced by the write queue
system.mem_ctrls0.mergedWrBursts                    0                       # Number of DRAM write bursts merged with an existing one
system.mem_ctrls0.neitherReadNorWriteReqs            0                       # Number of requests that are neither read nor write
system.mem_ctrls0.perBankRdBursts::0            20315                       # Per bank write bursts
system.mem_ctrls0.perBankRdBursts::1            21004                       # Per bank write bursts
system.mem_ctrls0.perBankRdBursts::2            20485                       # Per bank write bursts
system.mem_ctrls0.perBankRdBursts::3            20865                       # Per bank write bursts
system.mem_ctrls0.perBankRdBursts::4            20492                       # Per bank write bursts
system.mem_ctrls0.perBankRdBursts::5            21058                       # Per bank write bursts
system.mem_ctrls0.perBankRdBursts::6            20628                       # Per bank write bursts
system.mem_ctrls0.perBankRdBursts::7            20706                       # Per bank write bursts
system.mem_ctrls0.perBankRdBursts::8            20677                       # Per bank write bursts
system.mem_ctrls0.perBankRdBursts::9            20875                       # Per bank write bursts
system.mem_ctrls0.perBankRdBursts::10           20601                       # Per bank write bursts
system.mem_ctrls0.perBankRdBursts::11           20927                       # Per bank write bursts
system.mem_ctrls0.perBankRdBursts::12           20258                       # Per bank write bursts
system.mem_ctrls0.perBankRdBursts::13           20144                       # Per bank write bursts
system.mem_ctrls0.perBankRdBursts::14           20459                       # Per bank write bursts
system.mem_ctrls0.perBankRdBursts::15           20387                       # Per bank write bursts
system.mem_ctrls0.perBankWrBursts::0            11504                       # Per bank write bursts
system.mem_ctrls0.perBankWrBursts::1            11673                       # Per bank write bursts
system.mem_ctrls0.perBankWrBursts::2            11667                       # Per bank write bursts
system.mem_ctrls0.perBankWrBursts::3            11652                       # Per bank write bursts
system.mem_ctrls0.perBankWrBursts::4            11611                       # Per bank write bursts
system.mem_ctrls0.perBankWrBursts::5            11914                       # Per bank write bursts
system.mem_ctrls0.perBankWrBursts::6            11563                       # Per bank write bursts
system.mem_ctrls0.perBankWrBursts::7            11679                       # Per bank write bursts
system.mem_ctrls0.perBankWrBursts::8            11899                       # Per bank write bursts
system.mem_ctrls0.perBankWrBursts::9            11720                       # Per bank write bursts
system.mem_ctrls0.perBankWrBursts::10           11524                       # Per bank write bursts
system.mem_ctrls0.perBankWrBursts::11           11708                       # Per bank write bursts
system.mem_ctrls0.perBankWrBursts::12           11351                       # Per bank write bursts
system.mem_ctrls0.perBankWrBursts::13           11315                       # Per bank write bursts
system.mem_ctrls0.perBankWrBursts::14           11750                       # Per bank write bursts
system.mem_ctrls0.perBankWrBursts::15           11600                       # Per bank write bursts
system.mem_ctrls0.numRdRetry                     4476                       # Number of times read queue was full causing retry
system.mem_ctrls0.numWrRetry                     2550                       # Number of times write queue was full causing retry
system.mem_ctrls0.totGap                  93338013500                       # Total gap between requests
system.mem_ctrls0.readPktSize::0                    0                       # Read request sizes (log2)
system.mem_ctrls0.readPktSize::1                    0                       # Read request sizes (log2)
system.mem_ctrls0.readPktSize::2                    0                       # Read request sizes (log2)
system.mem_ctrls0.readPktSize::3                    0                       # Read request sizes (log2)
system.mem_ctrls0.readPktSize::4                    0                       # Read request sizes (log2)
system.mem_ctrls0.readPktSize::5                    0                       # Read request sizes (log2)
system.mem_ctrls0.readPktSize::6               329920                       # Read request sizes (log2)
system.mem_ctrls0.writePktSize::0                   0                       # Write request sizes (log2)
system.mem_ctrls0.writePktSize::1                   0                       # Write request sizes (log2)
system.mem_ctrls0.writePktSize::2                   0                       # Write request sizes (log2)
system.mem_ctrls0.writePktSize::3                   0                       # Write request sizes (log2)
system.mem_ctrls0.writePktSize::4                   0                       # Write request sizes (log2)
system.mem_ctrls0.writePktSize::5                   0                       # Write request sizes (log2)
system.mem_ctrls0.writePktSize::6              186134                       # Write request sizes (log2)
system.mem_ctrls0.rdQLenPdf::0                 153990                       # What read queue length does an incoming req see
system.mem_ctrls0.rdQLenPdf::1                  36020                       # What read queue length does an incoming req see
system.mem_ctrls0.rdQLenPdf::2                  27556                       # What read queue length does an incoming req see
system.mem_ctrls0.rdQLenPdf::3                  20353                       # What read queue length does an incoming req see
system.mem_ctrls0.rdQLenPdf::4                  15599                       # What read queue length does an incoming req see
system.mem_ctrls0.rdQLenPdf::5                  12311                       # What read queue length does an incoming req see
system.mem_ctrls0.rdQLenPdf::6                   9987                       # What read queue length does an incoming req see
system.mem_ctrls0.rdQLenPdf::7                   8056                       # What read queue length does an incoming req see
system.mem_ctrls0.rdQLenPdf::8                   6579                       # What read queue length does an incoming req see
system.mem_ctrls0.rdQLenPdf::9                   5331                       # What read queue length does an incoming req see
system.mem_ctrls0.rdQLenPdf::10                  4294                       # What read queue length does an incoming req see
system.mem_ctrls0.rdQLenPdf::11                  3602                       # What read queue length does an incoming req see
system.mem_ctrls0.rdQLenPdf::12                  2978                       # What read queue length does an incoming req see
system.mem_ctrls0.rdQLenPdf::13                  2530                       # What read queue length does an incoming req see
system.mem_ctrls0.rdQLenPdf::14                  2151                       # What read queue length does an incoming req see
system.mem_ctrls0.rdQLenPdf::15                  1857                       # What read queue length does an incoming req see
system.mem_ctrls0.rdQLenPdf::16                  1573                       # What read queue length does an incoming req see
system.mem_ctrls0.rdQLenPdf::17                  1308                       # What read queue length does an incoming req see
system.mem_ctrls0.rdQLenPdf::18                  1150                       # What read queue length does an incoming req see
system.mem_ctrls0.rdQLenPdf::19                  1006                       # What read queue length does an incoming req see
system.mem_ctrls0.rdQLenPdf::20                   910                       # What read queue length does an incoming req see
system.mem_ctrls0.rdQLenPdf::21                   850                       # What read queue length does an incoming req see
system.mem_ctrls0.rdQLenPdf::22                   749                       # What read queue length does an incoming req see
system.mem_ctrls0.rdQLenPdf::23                   708                       # What read queue length does an incoming req see
system.mem_ctrls0.rdQLenPdf::24                   621                       # What read queue length does an incoming req see
system.mem_ctrls0.rdQLenPdf::25                   546                       # What read queue length does an incoming req see
system.mem_ctrls0.rdQLenPdf::26                   467                       # What read queue length does an incoming req see
system.mem_ctrls0.rdQLenPdf::27                   462                       # What read queue length does an incoming req see
system.mem_ctrls0.rdQLenPdf::28                   427                       # What read queue length does an incoming req see
system.mem_ctrls0.rdQLenPdf::29                   416                       # What read queue length does an incoming req see
system.mem_ctrls0.rdQLenPdf::30                   465                       # What read queue length does an incoming req see
system.mem_ctrls0.rdQLenPdf::31                  5029                       # What read queue length does an incoming req see
system.mem_ctrls0.wrQLenPdf::0                  32837                       # What write queue length does an incoming req see
system.mem_ctrls0.wrQLenPdf::1                  35055                       # What write queue length does an incoming req see
system.mem_ctrls0.wrQLenPdf::2                  35749                       # What write queue length does an incoming req see
system.mem_ctrls0.wrQLenPdf::3                  35680                       # What write queue length does an incoming req see
system.mem_ctrls0.wrQLenPdf::4                  35442                       # What write queue length does an incoming req see
system.mem_ctrls0.wrQLenPdf::5                   3881                       # What write queue length does an incoming req see
system.mem_ctrls0.wrQLenPdf::6                   2964                       # What write queue length does an incoming req see
system.mem_ctrls0.wrQLenPdf::7                   4526                       # What write queue length does an incoming req see
system.mem_ctrls0.bytesPerActivate::samples       150964                       # Bytes accessed per row activation
system.mem_ctrls0.bytesPerActivate::mean   218.753716                       # Bytes accessed per row activation
system.mem_ctrls0.bytesPerActivate::gmean   163.277906                       # Bytes accessed per row activation
system.mem_ctrls0.bytesPerActivate::stdev   183.319030                       # Bytes accessed per row activation
system.mem_ctrls0.bytesPerActivate::0-127        46630     30.89%     30.89% # Bytes accessed per row activation
system.mem_ctrls0.bytesPerActivate::128-255        44331     29.37%     60.25% # Bytes accessed per row activation
system.mem_ctrls0.bytesPerActivate::256-383        42569     28.20%     88.45% # Bytes accessed per row activation
system.mem_ctrls0.bytesPerActivate::384-511         6649      4.40%     92.86% # Bytes accessed per row activation
system.mem_ctrls0.bytesPerActivate::512-639         4050      2.68%     95.54% # Bytes accessed per row activation
system.mem_ctrls0.bytesPerActivate::640-767         2195      1.45%     96.99% # Bytes accessed per row activation
system.mem_ctrls0.bytesPerActivate::768-895         1476      0.98%     97.97% # Bytes accessed per row activation
system.mem_ctrls0.bytesPerActivate::896-1023          985      0.65%     98.62% # Bytes accessed per row activation
system.mem_ctrls0.bytesPerActivate::1024-1151         2079      1.38%    100.00% # Bytes accessed per row activation
system.mem_ctrls0.bytesPerActivate::total       150964                       # Bytes accessed per row activation
system.mem_ctrls0.rdPerTurnAround::samples        33102                       # Reads before turning the bus around for writes
system.mem_ctrls0.rdPerTurnAround::mean      9.965289                       # Reads before turning the bus around for writes
system.mem_ctrls0.rdPerTurnAround::stdev    24.155324                       # Reads before turning the bus around for writes
system.mem_ctrls0.rdPerTurnAround::0-127        33095     99.98%     99.98% # Reads before turning the bus around for writes
system.mem_ctrls0.rdPerTurnAround::128-255            6      0.02%    100.00% # Reads before turning the bus around for writes
system.mem_ctrls0.rdPerTurnAround::3968-4095            1      0.00%    100.00% # Reads before turning the bus around for writes
system.mem_ctrls0.rdPerTurnAround::total        33102                       # Reads before turning the bus around for writes
system.mem_ctrls0.wrPerTurnAround::samples        33102                       # Writes before turning the bus around for reads
system.mem_ctrls0.wrPerTurnAround::mean      5.622923                       # Writes before turning the bus around for reads
system.mem_ctrls0.wrPerTurnAround::gmean     5.453730                       # Writes before turning the bus around for reads
system.mem_ctrls0.wrPerTurnAround::stdev     1.783375                       # Writes before turning the bus around for reads
system.mem_ctrls0.wrPerTurnAround::4-7          30380     91.78%     91.78% # Writes before turning the bus around for reads
system.mem_ctrls0.wrPerTurnAround::8-11          1837      5.55%     97.33% # Writes before turning the bus around for reads
system.mem_ctrls0.wrPerTurnAround::12-15          525      1.59%     98.91% # Writes before turning the bus around for reads
system.mem_ctrls0.wrPerTurnAround::16-19          360      1.09%    100.00% # Writes before turning the bus around for reads
system.mem_ctrls0.wrPerTurnAround::total        33102                       # Writes before turning the bus around for reads
system.mem_ctrls0.totQLat                 14411109664                       # Total ticks spent queuing
system.mem_ctrls0.totMemAccLat            20596378414                       # Total ticks spent from burst creation until serviced by the DRAM
system.mem_ctrls0.totBusLat                1649405000                       # Total ticks spent in databus transfers
system.mem_ctrls0.avgQLat                    43685.78                       # Average queueing delay per DRAM burst
system.mem_ctrls0.avgBusLat                   5000.00                       # Average bus latency per DRAM burst
system.mem_ctrls0.avgMemAccLat               62435.78                       # Average memory access latency per DRAM burst
system.mem_ctrls0.avgRdBW                      226.19                       # Average DRAM read bandwidth in MiByte/s
system.mem_ctrls0.avgWrBW                      127.62                       # Average achieved write bandwidth in MiByte/s
system.mem_ctrls0.avgRdBWSys                   226.22                       # Average system read bandwidth in MiByte/s
system.mem_ctrls0.avgWrBWSys                   127.63                       # Average system write bandwidth in MiByte/s
system.mem_ctrls0.peakBW                     12800.00                       # Theoretical peak bandwidth in MiByte/s
system.mem_ctrls0.busUtil                        2.76                       # Data bus utilization in percentage
system.mem_ctrls0.busUtilRead                    1.77                       # Data bus utilization in percentage for reads
system.mem_ctrls0.busUtilWrite                   1.00                       # Data bus utilization in percentage for writes
system.mem_ctrls0.avgRdQLen                      1.24                       # Average read queue length when enqueuing
system.mem_ctrls0.avgWrQLen                      2.96                       # Average write queue length when enqueuing
system.mem_ctrls0.readRowHits                  250941                       # Number of row buffer hits during reads
system.mem_ctrls0.writeRowHits                 114097                       # Number of row buffer hits during writes
system.mem_ctrls0.readRowHitRate                76.07                       # Row buffer hit rate for reads
system.mem_ctrls0.writeRowHitRate               61.30                       # Row buffer hit rate for writes
system.mem_ctrls0.avgGap                    180868.69                       # Average gap between requests
system.mem_ctrls0.pageHitRate                   70.74                       # Row buffer hit rate, read and write combined
system.mem_ctrls0.memoryStateTime::IDLE   15192080500                       # Time in different power states
system.mem_ctrls0.memoryStateTime::REF     3116620000                       # Time in different power states
system.mem_ctrls0.memoryStateTime::PRE_PDN            0                       # Time in different power states
system.mem_ctrls0.memoryStateTime::ACT    75027005500                       # Time in different power states
system.mem_ctrls0.memoryStateTime::ACT_PDN            0                       # Time in different power states
system.mem_ctrls0.actEnergy::0              576737280                       # Energy for activate commands per rank (pJ)
system.mem_ctrls0.actEnergy::1              564482520                       # Energy for activate commands per rank (pJ)
system.mem_ctrls0.preEnergy::0              314688000                       # Energy for precharge commands per rank (pJ)
system.mem_ctrls0.preEnergy::1              308001375                       # Energy for precharge commands per rank (pJ)
system.mem_ctrls0.readEnergy::0            1291243200                       # Energy for read commands per rank (pJ)
system.mem_ctrls0.readEnergy::1            1281696000                       # Energy for read commands per rank (pJ)
system.mem_ctrls0.writeEnergy::0            604331280                       # Energy for write commands per rank (pJ)
system.mem_ctrls0.writeEnergy::1            601758720                       # Energy for write commands per rank (pJ)
system.mem_ctrls0.refreshEnergy::0         6096108720                       # Energy for refresh commands per rank (pJ)
system.mem_ctrls0.refreshEnergy::1         6096108720                       # Energy for refresh commands per rank (pJ)
system.mem_ctrls0.actBackEnergy::0        38891105415                       # Energy for active background per rank (pJ)
system.mem_ctrls0.actBackEnergy::1        38174477760                       # Energy for active background per rank (pJ)
system.mem_ctrls0.preBackEnergy::0        21885418500                       # Energy for precharge background per rank (pJ)
system.mem_ctrls0.preBackEnergy::1        22514039250                       # Energy for precharge background per rank (pJ)
system.mem_ctrls0.totalEnergy::0          69659632395                       # Total energy per rank (pJ)
system.mem_ctrls0.totalEnergy::1          69540564345                       # Total energy per rank (pJ)
system.mem_ctrls0.averagePower::0          746.347563                       # Core power per rank (mW)
system.mem_ctrls0.averagePower::1          745.071844                       # Core power per rank (mW)
system.mem_ctrls1.bytes_read::ruby.dir_cntrl1     20695744                       # Number of bytes read from this memory
system.mem_ctrls1.bytes_read::total          20695744                       # Number of bytes read from this memory
system.mem_ctrls1.bytes_written::ruby.dir_cntrl1     11495808                       # Number of bytes written to this memory
system.mem_ctrls1.bytes_written::total       11495808                       # Number of bytes written to this memory
system.mem_ctrls1.num_reads::ruby.dir_cntrl1       323371                       # Number of read requests responded to by this memory
system.mem_ctrls1.num_reads::total             323371                       # Number of read requests responded to by this memory
system.mem_ctrls1.num_writes::ruby.dir_cntrl1       179622                       # Number of write requests responded to by this memory
system.mem_ctrls1.num_writes::total            179622                       # Number of write requests responded to by this memory
system.mem_ctrls1.bw_read::ruby.dir_cntrl1    221727656                       # Total read bandwidth from this memory (bytes/s)
system.mem_ctrls1.bw_read::total            221727656                       # Total read bandwidth from this memory (bytes/s)
system.mem_ctrls1.bw_write::ruby.dir_cntrl1    123162451                       # Write bandwidth from this memory (bytes/s)
system.mem_ctrls1.bw_write::total           123162451                       # Write bandwidth from this memory (bytes/s)
system.mem_ctrls1.bw_total::ruby.dir_cntrl1    344890107                       # Total bandwidth to/from this memory (bytes/s)
system.mem_ctrls1.bw_total::total           344890107                       # Total bandwidth to/from this memory (bytes/s)
system.mem_ctrls1.readReqs                     323371                       # Number of read requests accepted
system.mem_ctrls1.writeReqs                    179622                       # Number of write requests accepted
system.mem_ctrls1.readBursts                   323371                       # Number of DRAM read bursts, including those serviced by the write queue
system.mem_ctrls1.writeBursts                  179622                       # Number of DRAM write bursts, including those merged in the write queue
system.mem_ctrls1.bytesReadDRAM              20693632                       # Total number of bytes read from DRAM
system.mem_ctrls1.bytesReadWrQ                   2112                       # Total number of bytes read from write queue
system.mem_ctrls1.bytesWritten               11495680                       # Total number of bytes written to DRAM
system.mem_ctrls1.bytesReadSys               20695744                       # Total read bytes from the system interface side
system.mem_ctrls1.bytesWrittenSys            11495808                       # Total written bytes from the system interface side
system.mem_ctrls1.servicedByWrQ                    33                       # Number of DRAM read bursts serviced by the write queue
system.mem_ctrls1.mergedWrBursts                    0                       # Number of DRAM write bursts merged with an existing one
system.mem_ctrls1.neitherReadNorWriteReqs            0                       # Number of requests that are neither read nor write
system.mem_ctrls1.perBankRdBursts::0            19956                       # Per bank write bursts
system.mem_ctrls1.perBankRdBursts::1            20531                       # Per bank write bursts
system.mem_ctrls1.perBankRdBursts::2            20099                       # Per bank write bursts
system.mem_ctrls1.perBankRdBursts::3            20456                       # Per bank write bursts
system.mem_ctrls1.perBankRdBursts::4            20133                       # Per bank write bursts
system.mem_ctrls1.perBankRdBursts::5            20613                       # Per bank write bursts
system.mem_ctrls1.perBankRdBursts::6            20209                       # Per bank write bursts
system.mem_ctrls1.perBankRdBursts::7            20388                       # Per bank write bursts
system.mem_ctrls1.perBankRdBursts::8            20245                       # Per bank write bursts
system.mem_ctrls1.perBankRdBursts::9            20446                       # Per bank write bursts
system.mem_ctrls1.perBankRdBursts::10           20187                       # Per bank write bursts
system.mem_ctrls1.perBankRdBursts::11           20523                       # Per bank write bursts
system.mem_ctrls1.perBankRdBursts::12           19829                       # Per bank write bursts
system.mem_ctrls1.perBankRdBursts::13           19780                       # Per bank write bursts
system.mem_ctrls1.perBankRdBursts::14           19952                       # Per bank write bursts
system.mem_ctrls1.perBankRdBursts::15           19991                       # Per bank write bursts
system.mem_ctrls1.perBankWrBursts::0            11103                       # Per bank write bursts
system.mem_ctrls1.perBankWrBursts::1            11270                       # Per bank write bursts
system.mem_ctrls1.perBankWrBursts::2            11274                       # Per bank write bursts
system.mem_ctrls1.perBankWrBursts::3            11244                       # Per bank write bursts
system.mem_ctrls1.perBankWrBursts::4            11220                       # Per bank write bursts
system.mem_ctrls1.perBankWrBursts::5            11525                       # Per bank write bursts
system.mem_ctrls1.perBankWrBursts::6            11145                       # Per bank write bursts
system.mem_ctrls1.perBankWrBursts::7            11272                       # Per bank write bursts
system.mem_ctrls1.perBankWrBursts::8            11493                       # Per bank write bursts
system.mem_ctrls1.perBankWrBursts::9            11299                       # Per bank write bursts
system.mem_ctrls1.perBankWrBursts::10           11126                       # Per bank write bursts
system.mem_ctrls1.perBankWrBursts::11           11295                       # Per bank write bursts
system.mem_ctrls1.perBankWrBursts::12           10953                       # Per bank write bursts
system.mem_ctrls1.perBankWrBursts::13           10909                       # Per bank write bursts
system.mem_ctrls1.perBankWrBursts::14           11297                       # Per bank write bursts
system.mem_ctrls1.perBankWrBursts::15           11195                       # Per bank write bursts
system.mem_ctrls1.numRdRetry                     4350                       # Number of times read queue was full causing retry
system.mem_ctrls1.numWrRetry                     2190                       # Number of times write queue was full causing retry
system.mem_ctrls1.totGap                  93337743000                       # Total gap between requests
system.mem_ctrls1.readPktSize::0                    0                       # Read request sizes (log2)
system.mem_ctrls1.readPktSize::1                    0                       # Read request sizes (log2)
system.mem_ctrls1.readPktSize::2                    0                       # Read request sizes (log2)
system.mem_ctrls1.readPktSize::3                    0                       # Read request sizes (log2)
system.mem_ctrls1.readPktSize::4                    0                       # Read request sizes (log2)
system.mem_ctrls1.readPktSize::5                    0                       # Read request sizes (log2)
system.mem_ctrls1.readPktSize::6               323371                       # Read request sizes (log2)
system.mem_ctrls1.writePktSize::0                   0                       # Write request sizes (log2)
system.mem_ctrls1.writePktSize::1                   0                       # Write request sizes (log2)
system.mem_ctrls1.writePktSize::2                   0                       # Write request sizes (log2)
system.mem_ctrls1.writePktSize::3                   0                       # Write request sizes (log2)
system.mem_ctrls1.writePktSize::4                   0                       # Write request sizes (log2)
system.mem_ctrls1.writePktSize::5                   0                       # Write request sizes (log2)
system.mem_ctrls1.writePktSize::6              179622                       # Write request sizes (log2)
system.mem_ctrls1.rdQLenPdf::0                 150944                       # What read queue length does an incoming req see
system.mem_ctrls1.rdQLenPdf::1                  33904                       # What read queue length does an incoming req see
system.mem_ctrls1.rdQLenPdf::2                  26815                       # What read queue length does an incoming req see
system.mem_ctrls1.rdQLenPdf::3                  20727                       # What read queue length does an incoming req see
system.mem_ctrls1.rdQLenPdf::4                  15835                       # What read queue length does an incoming req see
system.mem_ctrls1.rdQLenPdf::5                  12240                       # What read queue length does an incoming req see
system.mem_ctrls1.rdQLenPdf::6                   9585                       # What read queue length does an incoming req see
system.mem_ctrls1.rdQLenPdf::7                   7770                       # What read queue length does an incoming req see
system.mem_ctrls1.rdQLenPdf::8                   6292                       # What read queue length does an incoming req see
system.mem_ctrls1.rdQLenPdf::9                   5175                       # What read queue length does an incoming req see
system.mem_ctrls1.rdQLenPdf::10                  4185                       # What read queue length does an incoming req see
system.mem_ctrls1.rdQLenPdf::11                  3427                       # What read queue length does an incoming req see
system.mem_ctrls1.rdQLenPdf::12                  2897                       # What read queue length does an incoming req see
system.mem_ctrls1.rdQLenPdf::13                  2519                       # What read queue length does an incoming req see
system.mem_ctrls1.rdQLenPdf::14                  2200                       # What read queue length does an incoming req see
system.mem_ctrls1.rdQLenPdf::15                  1841                       # What read queue length does an incoming req see
system.mem_ctrls1.rdQLenPdf::16                  1521                       # What read queue length does an incoming req see
system.mem_ctrls1.rdQLenPdf::17                  1286                       # What read queue length does an incoming req see
system.mem_ctrls1.rdQLenPdf::18                  1178                       # What read queue length does an incoming req see
system.mem_ctrls1.rdQLenPdf::19                  1034                       # What read queue length does an incoming req see
system.mem_ctrls1.rdQLenPdf::20                   913                       # What read queue length does an incoming req see
system.mem_ctrls1.rdQLenPdf::21                   826                       # What read queue length does an incoming req see
system.mem_ctrls1.rdQLenPdf::22                   756                       # What read queue length does an incoming req see
system.mem_ctrls1.rdQLenPdf::23                   713                       # What read queue length does an incoming req see
system.mem_ctrls1.rdQLenPdf::24                   695                       # What read queue length does an incoming req see
system.mem_ctrls1.rdQLenPdf::25                   610                       # What read queue length does an incoming req see
system.mem_ctrls1.rdQLenPdf::26                   580                       # What read queue length does an incoming req see
system.mem_ctrls1.rdQLenPdf::27                   539                       # What read queue length does an incoming req see
system.mem_ctrls1.rdQLenPdf::28                   521                       # What read queue length does an incoming req see
system.mem_ctrls1.rdQLenPdf::29                   474                       # What read queue length does an incoming req see
system.mem_ctrls1.rdQLenPdf::30                   463                       # What read queue length does an incoming req see
system.mem_ctrls1.rdQLenPdf::31                  4873                       # What read queue length does an incoming req see
system.mem_ctrls1.wrQLenPdf::0                  31675                       # What write queue length does an incoming req see
system.mem_ctrls1.wrQLenPdf::1                  33779                       # What write queue length does an incoming req see
system.mem_ctrls1.wrQLenPdf::2                  34466                       # What write queue length does an incoming req see
system.mem_ctrls1.wrQLenPdf::3                  34578                       # What write queue length does an incoming req see
system.mem_ctrls1.wrQLenPdf::4                  34324                       # What write queue length does an incoming req see
system.mem_ctrls1.wrQLenPdf::5                   3884                       # What write queue length does an incoming req see
system.mem_ctrls1.wrQLenPdf::6                   2870                       # What write queue length does an incoming req see
system.mem_ctrls1.wrQLenPdf::7                   4046                       # What write queue length does an incoming req see
system.mem_ctrls1.bytesPerActivate::samples       142451                       # Bytes accessed per row activation
system.mem_ctrls1.bytesPerActivate::mean   225.962668                       # Bytes accessed per row activation
system.mem_ctrls1.bytesPerActivate::gmean   168.170711                       # Bytes accessed per row activation
system.mem_ctrls1.bytesPerActivate::stdev   187.756434                       # Bytes accessed per row activation
system.mem_ctrls1.bytesPerActivate::0-127        42746     30.01%     30.01% # Bytes accessed per row activation
system.mem_ctrls1.bytesPerActivate::128-255        39647     27.83%     57.84% # Bytes accessed per row activation
system.mem_ctrls1.bytesPerActivate::256-383        42246     29.66%     87.50% # Bytes accessed per row activation
system.mem_ctrls1.bytesPerActivate::384-511         6841      4.80%     92.30% # Bytes accessed per row activation
system.mem_ctrls1.bytesPerActivate::512-639         4092      2.87%     95.17% # Bytes accessed per row activation
system.mem_ctrls1.bytesPerActivate::640-767         2231      1.57%     96.74% # Bytes accessed per row activation
system.mem_ctrls1.bytesPerActivate::768-895         1543      1.08%     97.82% # Bytes accessed per row activation
system.mem_ctrls1.bytesPerActivate::896-1023         1019      0.72%     98.54% # Bytes accessed per row activation
system.mem_ctrls1.bytesPerActivate::1024-1151         2086      1.46%    100.00% # Bytes accessed per row activation
system.mem_ctrls1.bytesPerActivate::total       142451                       # Bytes accessed per row activation
system.mem_ctrls1.rdPerTurnAround::samples        31938                       # Reads before turning the bus around for writes
system.mem_ctrls1.rdPerTurnAround::mean     10.123708                       # Reads before turning the bus around for writes
system.mem_ctrls1.rdPerTurnAround::stdev    20.324114                       # Reads before turning the bus around for writes
system.mem_ctrls1.rdPerTurnAround::0-127        31930     99.97%     99.97% # Reads before turning the bus around for writes
system.mem_ctrls1.rdPerTurnAround::128-255            6      0.02%     99.99% # Reads before turning the bus around for writes
system.mem_ctrls1.rdPerTurnAround::1152-1279            1      0.00%    100.00% # Reads before turning the bus around for writes
system.mem_ctrls1.rdPerTurnAround::2816-2943            1      0.00%    100.00% # Reads before turning the bus around for writes
system.mem_ctrls1.rdPerTurnAround::total        31938                       # Reads before turning the bus around for writes
system.mem_ctrls1.wrPerTurnAround::samples        31938                       # Writes before turning the bus around for reads
system.mem_ctrls1.wrPerTurnAround::mean      5.624022                       # Writes before turning the bus around for reads
system.mem_ctrls1.wrPerTurnAround::gmean     5.453818                       # Writes before turning the bus around for reads
system.mem_ctrls1.wrPerTurnAround::stdev     1.785498                       # Writes before turning the bus around for reads
system.mem_ctrls1.wrPerTurnAround::4-7          29273     91.66%     91.66% # Writes before turning the bus around for reads
system.mem_ctrls1.wrPerTurnAround::8-11          1834      5.74%     97.40% # Writes before turning the bus around for reads
system.mem_ctrls1.wrPerTurnAround::12-15          482      1.51%     98.91% # Writes before turning the bus around for reads
system.mem_ctrls1.wrPerTurnAround::16-19          349      1.09%    100.00% # Writes before turning the bus around for reads
system.mem_ctrls1.wrPerTurnAround::total        31938                       # Writes before turning the bus around for reads
system.mem_ctrls1.totQLat                 14062069813                       # Total ticks spent queuing
system.mem_ctrls1.totMemAccLat            20124657313                       # Total ticks spent from burst creation until serviced by the DRAM
system.mem_ctrls1.totBusLat                1616690000                       # Total ticks spent in databus transfers
system.mem_ctrls1.avgQLat                    43490.31                       # Average queueing delay per DRAM burst
system.mem_ctrls1.avgBusLat                   5000.00                       # Average bus latency per DRAM burst
system.mem_ctrls1.avgMemAccLat               62240.31                       # Average memory access latency per DRAM burst
system.mem_ctrls1.avgRdBW                      221.71                       # Average DRAM read bandwidth in MiByte/s
system.mem_ctrls1.avgWrBW                      123.16                       # Average achieved write bandwidth in MiByte/s
system.mem_ctrls1.avgRdBWSys                   221.73                       # Average system read bandwidth in MiByte/s
system.mem_ctrls1.avgWrBWSys                   123.16                       # Average system write bandwidth in MiByte/s
system.mem_ctrls1.peakBW                     12800.00                       # Theoretical peak bandwidth in MiByte/s
system.mem_ctrls1.busUtil                        2.69                       # Data bus utilization in percentage
system.mem_ctrls1.busUtilRead                    1.73                       # Data bus utilization in percentage for reads
system.mem_ctrls1.busUtilWrite                   0.96                       # Data bus utilization in percentage for writes
system.mem_ctrls1.avgRdQLen                      1.23                       # Average read queue length when enqueuing
system.mem_ctrls1.avgWrQLen                      2.97                       # Average write queue length when enqueuing
system.mem_ctrls1.readRowHits                  247816                       # Number of row buffer hits during reads
system.mem_ctrls1.writeRowHits                 112683                       # Number of row buffer hits during writes
system.mem_ctrls1.readRowHitRate                76.64                       # Row buffer hit rate for reads
system.mem_ctrls1.writeRowHitRate               62.73                       # Row buffer hit rate for writes
system.mem_ctrls1.avgGap                    185564.70                       # Average gap between requests
system.mem_ctrls1.pageHitRate                   71.68                       # Row buffer hit rate, read and write combined
system.mem_ctrls1.memoryStateTime::IDLE   15401607500                       # Time in different power states
system.mem_ctrls1.memoryStateTime::REF     3116620000                       # Time in different power states
system.mem_ctrls1.memoryStateTime::PRE_PDN            0                       # Time in different power states
system.mem_ctrls1.memoryStateTime::ACT    74817139000                       # Time in different power states
system.mem_ctrls1.memoryStateTime::ACT_PDN            0                       # Time in different power states
system.mem_ctrls1.actEnergy::0              544463640                       # Energy for activate commands per rank (pJ)
system.mem_ctrls1.actEnergy::1              532420560                       # Energy for activate commands per rank (pJ)
system.mem_ctrls1.preEnergy::0              297078375                       # Energy for precharge commands per rank (pJ)
system.mem_ctrls1.preEnergy::1              290507250                       # Energy for precharge commands per rank (pJ)
system.mem_ctrls1.readEnergy::0            1266525000                       # Energy for read commands per rank (pJ)
system.mem_ctrls1.readEnergy::1            1255394400                       # Energy for read commands per rank (pJ)
system.mem_ctrls1.writeEnergy::0            583543440                       # Energy for write commands per rank (pJ)
system.mem_ctrls1.writeEnergy::1            580361760                       # Energy for write commands per rank (pJ)
system.mem_ctrls1.refreshEnergy::0         6096108720                       # Energy for refresh commands per rank (pJ)
system.mem_ctrls1.refreshEnergy::1         6096108720                       # Energy for refresh commands per rank (pJ)
system.mem_ctrls1.actBackEnergy::0        38382730965                       # Energy for active background per rank (pJ)
system.mem_ctrls1.actBackEnergy::1        37421344170                       # Energy for active background per rank (pJ)
system.mem_ctrls1.preBackEnergy::0        22331361000                       # Energy for precharge background per rank (pJ)
system.mem_ctrls1.preBackEnergy::1        23174682750                       # Energy for precharge background per rank (pJ)
system.mem_ctrls1.totalEnergy::0          69501811140                       # Total energy per rank (pJ)
system.mem_ctrls1.totalEnergy::1          69350819610                       # Total energy per rank (pJ)
system.mem_ctrls1.averagePower::0          744.656634                       # Core power per rank (mW)
system.mem_ctrls1.averagePower::1          743.038880                       # Core power per rank (mW)
system.mem_ctrls2.bytes_read::ruby.dir_cntrl2     20696640                       # Number of bytes read from this memory
system.mem_ctrls2.bytes_read::total          20696640                       # Number of bytes read from this memory
system.mem_ctrls2.bytes_written::ruby.dir_cntrl2     11495680                       # Number of bytes written to this memory
system.mem_ctrls2.bytes_written::total       11495680                       # Number of bytes written to this memory
system.mem_ctrls2.num_reads::ruby.dir_cntrl2       323385                       # Number of read requests responded to by this memory
system.mem_ctrls2.num_reads::total             323385                       # Number of read requests responded to by this memory
system.mem_ctrls2.num_writes::ruby.dir_cntrl2       179620                       # Number of write requests responded to by this memory
system.mem_ctrls2.num_writes::total            179620                       # Number of write requests responded to by this memory
system.mem_ctrls2.bw_read::ruby.dir_cntrl2    221737255                       # Total read bandwidth from this memory (bytes/s)
system.mem_ctrls2.bw_read::total            221737255                       # Total read bandwidth from this memory (bytes/s)
system.mem_ctrls2.bw_write::ruby.dir_cntrl2    123161080                       # Write bandwidth from this memory (bytes/s)
system.mem_ctrls2.bw_write::total           123161080                       # Write bandwidth from this memory (bytes/s)
system.mem_ctrls2.bw_total::ruby.dir_cntrl2    344898335                       # Total bandwidth to/from this memory (bytes/s)
system.mem_ctrls2.bw_total::total           344898335                       # Total bandwidth to/from this memory (bytes/s)
system.mem_ctrls2.readReqs                     323385                       # Number of read requests accepted
system.mem_ctrls2.writeReqs                    179620                       # Number of write requests accepted
system.mem_ctrls2.readBursts                   323385                       # Number of DRAM read bursts, including those serviced by the write queue
system.mem_ctrls2.writeBursts                  179620                       # Number of DRAM write bursts, including those merged in the write queue
system.mem_ctrls2.bytesReadDRAM              20695616                       # Total number of bytes read from DRAM
system.mem_ctrls2.bytesReadWrQ                   1024                       # Total number of bytes read from write queue
system.mem_ctrls2.bytesWritten               11495616                       # Total number of bytes written to DRAM
system.mem_ctrls2.bytesReadSys               20696640                       # Total read bytes from the system interface side
system.mem_ctrls2.bytesWrittenSys            11495680                       # Total written bytes from the system interface side
system.mem_ctrls2.servicedByWrQ                    16                       # Number of DRAM read bursts serviced by the write queue
system.mem_ctrls2.mergedWrBursts                    0                       # Number of DRAM write bursts merged with an existing one
system.mem_ctrls2.neitherReadNorWriteReqs            0                       # Number of requests that are neither read nor write
system.mem_ctrls2.perBankRdBursts::0            19957                       # Per bank write bursts
system.mem_ctrls2.perBankRdBursts::1            20564                       # Per bank write bursts
system.mem_ctrls2.perBankRdBursts::2            20134                       # Per bank write bursts
system.mem_ctrls2.perBankRdBursts::3            20505                       # Per bank write bursts
system.mem_ctrls2.perBankRdBursts::4            20149                       # Per bank write bursts
system.mem_ctrls2.perBankRdBursts::5            20591                       # Per bank write bursts
system.mem_ctrls2.perBankRdBursts::6            20213                       # Per bank write bursts
system.mem_ctrls2.perBankRdBursts::7            20336                       # Per bank write bursts
system.mem_ctrls2.perBankRdBursts::8            20219                       # Per bank write bursts
system.mem_ctrls2.perBankRdBursts::9            20469                       # Per bank write bursts
system.mem_ctrls2.perBankRdBursts::10           20190                       # Per bank write bursts
system.mem_ctrls2.perBankRdBursts::11           20552                       # Per bank write bursts
system.mem_ctrls2.perBankRdBursts::12           19851                       # Per bank write bursts
system.mem_ctrls2.perBankRdBursts::13           19689                       # Per bank write bursts
system.mem_ctrls2.perBankRdBursts::14           19944                       # Per bank write bursts
system.mem_ctrls2.perBankRdBursts::15           20006                       # Per bank write bursts
system.mem_ctrls2.perBankWrBursts::0            11112                       # Per bank write bursts
system.mem_ctrls2.perBankWrBursts::1            11275                       # Per bank write bursts
system.mem_ctrls2.perBankWrBursts::2            11262                       # Per bank write bursts
system.mem_ctrls2.perBankWrBursts::3            11264                       # Per bank write bursts
system.mem_ctrls2.perBankWrBursts::4            11215                       # Per bank write bursts
system.mem_ctrls2.perBankWrBursts::5            11507                       # Per bank write bursts
system.mem_ctrls2.perBankWrBursts::6            11165                       # Per bank write bursts
system.mem_ctrls2.perBankWrBursts::7            11268                       # Per bank write bursts
system.mem_ctrls2.perBankWrBursts::8            11463                       # Per bank write bursts
system.mem_ctrls2.perBankWrBursts::9            11304                       # Per bank write bursts
system.mem_ctrls2.perBankWrBursts::10           11116                       # Per bank write bursts
system.mem_ctrls2.perBankWrBursts::11           11309                       # Per bank write bursts
system.mem_ctrls2.perBankWrBursts::12           10961                       # Per bank write bursts
system.mem_ctrls2.perBankWrBursts::13           10899                       # Per bank write bursts
system.mem_ctrls2.perBankWrBursts::14           11294                       # Per bank write bursts
system.mem_ctrls2.perBankWrBursts::15           11205                       # Per bank write bursts
system.mem_ctrls2.numRdRetry                     4312                       # Number of times read queue was full causing retry
system.mem_ctrls2.numWrRetry                     2325                       # Number of times write queue was full causing retry
system.mem_ctrls2.totGap                  93338435500                       # Total gap between requests
system.mem_ctrls2.readPktSize::0                    0                       # Read request sizes (log2)
system.mem_ctrls2.readPktSize::1                    0                       # Read request sizes (log2)
system.mem_ctrls2.readPktSize::2                    0                       # Read request sizes (log2)
system.mem_ctrls2.readPktSize::3                    0                       # Read request sizes (log2)
system.mem_ctrls2.readPktSize::4                    0                       # Read request sizes (log2)
system.mem_ctrls2.readPktSize::5                    0                       # Read request sizes (log2)
system.mem_ctrls2.readPktSize::6               323385                       # Read request sizes (log2)
system.mem_ctrls2.writePktSize::0                   0                       # Write request sizes (log2)
system.mem_ctrls2.writePktSize::1                   0                       # Write request sizes (log2)
system.mem_ctrls2.writePktSize::2                   0                       # Write request sizes (log2)
system.mem_ctrls2.writePktSize::3                   0                       # Write request sizes (log2)
system.mem_ctrls2.writePktSize::4                   0                       # Write request sizes (log2)
system.mem_ctrls2.writePktSize::5                   0                       # Write request sizes (log2)
system.mem_ctrls2.writePktSize::6              179620                       # Write request sizes (log2)
system.mem_ctrls2.rdQLenPdf::0                 151434                       # What read queue length does an incoming req see
system.mem_ctrls2.rdQLenPdf::1                  33736                       # What read queue length does an incoming req see
system.mem_ctrls2.rdQLenPdf::2                  26463                       # What read queue length does an incoming req see
system.mem_ctrls2.rdQLenPdf::3                  20154                       # What read queue length does an incoming req see
system.mem_ctrls2.rdQLenPdf::4                  15450                       # What read queue length does an incoming req see
system.mem_ctrls2.rdQLenPdf::5                  12033                       # What read queue length does an incoming req see
system.mem_ctrls2.rdQLenPdf::6                   9385                       # What read queue length does an incoming req see
system.mem_ctrls2.rdQLenPdf::7                   7699                       # What read queue length does an incoming req see
system.mem_ctrls2.rdQLenPdf::8                   6241                       # What read queue length does an incoming req see
system.mem_ctrls2.rdQLenPdf::9                   5260                       # What read queue length does an incoming req see
system.mem_ctrls2.rdQLenPdf::10                  4319                       # What read queue length does an incoming req see
system.mem_ctrls2.rdQLenPdf::11                  3737                       # What read queue length does an incoming req see
system.mem_ctrls2.rdQLenPdf::12                  3190                       # What read queue length does an incoming req see
system.mem_ctrls2.rdQLenPdf::13                  2657                       # What read queue length does an incoming req see
system.mem_ctrls2.rdQLenPdf::14                  2252                       # What read queue length does an incoming req see
system.mem_ctrls2.rdQLenPdf::15                  1884                       # What read queue length does an incoming req see
system.mem_ctrls2.rdQLenPdf::16                  1602                       # What read queue length does an incoming req see
system.mem_ctrls2.rdQLenPdf::17                  1460                       # What read queue length does an incoming req see
system.mem_ctrls2.rdQLenPdf::18                  1293                       # What read queue length does an incoming req see
system.mem_ctrls2.rdQLenPdf::19                  1165                       # What read queue length does an incoming req see
system.mem_ctrls2.rdQLenPdf::20                  1103                       # What read queue length does an incoming req see
system.mem_ctrls2.rdQLenPdf::21                   966                       # What read queue length does an incoming req see
system.mem_ctrls2.rdQLenPdf::22                   822                       # What read queue length does an incoming req see
system.mem_ctrls2.rdQLenPdf::23                   754                       # What read queue length does an incoming req see
system.mem_ctrls2.rdQLenPdf::24                   669                       # What read queue length does an incoming req see
system.mem_ctrls2.rdQLenPdf::25                   574                       # What read queue length does an incoming req see
system.mem_ctrls2.rdQLenPdf::26                   537                       # What read queue length does an incoming req see
system.mem_ctrls2.rdQLenPdf::27                   485                       # What read queue length does an incoming req see
system.mem_ctrls2.rdQLenPdf::28                   437                       # What read queue length does an incoming req see
system.mem_ctrls2.rdQLenPdf::29                   423                       # What read queue length does an incoming req see
system.mem_ctrls2.rdQLenPdf::30                   423                       # What read queue length does an incoming req see
system.mem_ctrls2.rdQLenPdf::31                  4762                       # What read queue length does an incoming req see
system.mem_ctrls2.wrQLenPdf::0                  31629                       # What write queue length does an incoming req see
system.mem_ctrls2.wrQLenPdf::1                  33650                       # What write queue length does an incoming req see
system.mem_ctrls2.wrQLenPdf::2                  34304                       # What write queue length does an incoming req see
system.mem_ctrls2.wrQLenPdf::3                  34623                       # What write queue length does an incoming req see
system.mem_ctrls2.wrQLenPdf::4                  34243                       # What write queue length does an incoming req see
system.mem_ctrls2.wrQLenPdf::5                   4034                       # What write queue length does an incoming req see
system.mem_ctrls2.wrQLenPdf::6                   2975                       # What write queue length does an incoming req see
system.mem_ctrls2.wrQLenPdf::7                   4162                       # What write queue length does an incoming req see
system.mem_ctrls2.bytesPerActivate::samples       141662                       # Bytes accessed per row activation
system.mem_ctrls2.bytesPerActivate::mean   227.233387                       # Bytes accessed per row activation
system.mem_ctrls2.bytesPerActivate::gmean   169.196567                       # Bytes accessed per row activation
system.mem_ctrls2.bytesPerActivate::stdev   188.118728                       # Bytes accessed per row activation
system.mem_ctrls2.bytesPerActivate::0-127        42172     29.77%     29.77% # Bytes accessed per row activation
system.mem_ctrls2.bytesPerActivate::128-255        39048     27.56%     57.33% # Bytes accessed per row activation
system.mem_ctrls2.bytesPerActivate::256-383        42524     30.02%     87.35% # Bytes accessed per row activation
system.mem_ctrls2.bytesPerActivate::384-511         6754      4.77%     92.12% # Bytes accessed per row activation
system.mem_ctrls2.bytesPerActivate::512-639         4221      2.98%     95.10% # Bytes accessed per row activation
system.mem_ctrls2.bytesPerActivate::640-767         2316      1.63%     96.73% # Bytes accessed per row activation
system.mem_ctrls2.bytesPerActivate::768-895         1531      1.08%     97.81% # Bytes accessed per row activation
system.mem_ctrls2.bytesPerActivate::896-1023         1049      0.74%     98.56% # Bytes accessed per row activation
system.mem_ctrls2.bytesPerActivate::1024-1151         2047      1.44%    100.00% # Bytes accessed per row activation
system.mem_ctrls2.bytesPerActivate::total       141662                       # Bytes accessed per row activation
system.mem_ctrls2.rdPerTurnAround::samples        31899                       # Reads before turning the bus around for writes
system.mem_ctrls2.rdPerTurnAround::mean     10.137152                       # Reads before turning the bus around for writes
system.mem_ctrls2.rdPerTurnAround::stdev    20.376526                       # Reads before turning the bus around for writes
system.mem_ctrls2.rdPerTurnAround::0-127        31893     99.98%     99.98% # Reads before turning the bus around for writes
system.mem_ctrls2.rdPerTurnAround::128-255            4      0.01%     99.99% # Reads before turning the bus around for writes
system.mem_ctrls2.rdPerTurnAround::1152-1279            1      0.00%    100.00% # Reads before turning the bus around for writes
system.mem_ctrls2.rdPerTurnAround::2816-2943            1      0.00%    100.00% # Reads before turning the bus around for writes
system.mem_ctrls2.rdPerTurnAround::total        31899                       # Reads before turning the bus around for writes
system.mem_ctrls2.wrPerTurnAround::samples        31899                       # Writes before turning the bus around for reads
system.mem_ctrls2.wrPerTurnAround::mean      5.630866                       # Writes before turning the bus around for reads
system.mem_ctrls2.wrPerTurnAround::gmean     5.457455                       # Writes before turning the bus around for reads
system.mem_ctrls2.wrPerTurnAround::stdev     1.800426                       # Writes before turning the bus around for reads
system.mem_ctrls2.wrPerTurnAround::4-7          29144     91.36%     91.36% # Writes before turning the bus around for reads
system.mem_ctrls2.wrPerTurnAround::8-11          1912      5.99%     97.36% # Writes before turning the bus around for reads
system.mem_ctrls2.wrPerTurnAround::12-15          500      1.57%     98.92% # Writes before turning the bus around for reads
system.mem_ctrls2.wrPerTurnAround::16-19          343      1.08%    100.00% # Writes before turning the bus around for reads
system.mem_ctrls2.wrPerTurnAround::total        31899                       # Writes before turning the bus around for reads
system.mem_ctrls2.totQLat                 14101144878                       # Total ticks spent queuing
system.mem_ctrls2.totMemAccLat            20164313628                       # Total ticks spent from burst creation until serviced by the DRAM
system.mem_ctrls2.totBusLat                1616845000                       # Total ticks spent in databus transfers
system.mem_ctrls2.avgQLat                    43606.98                       # Average queueing delay per DRAM burst
system.mem_ctrls2.avgBusLat                   5000.00                       # Average bus latency per DRAM burst
system.mem_ctrls2.avgMemAccLat               62356.98                       # Average memory access latency per DRAM burst
system.mem_ctrls2.avgRdBW                      221.73                       # Average DRAM read bandwidth in MiByte/s
system.mem_ctrls2.avgWrBW                      123.16                       # Average achieved write bandwidth in MiByte/s
system.mem_ctrls2.avgRdBWSys                   221.74                       # Average system read bandwidth in MiByte/s
system.mem_ctrls2.avgWrBWSys                   123.16                       # Average system write bandwidth in MiByte/s
system.mem_ctrls2.peakBW                     12800.00                       # Theoretical peak bandwidth in MiByte/s
system.mem_ctrls2.busUtil                        2.69                       # Data bus utilization in percentage
system.mem_ctrls2.busUtilRead                    1.73                       # Data bus utilization in percentage for reads
system.mem_ctrls2.busUtilWrite                   0.96                       # Data bus utilization in percentage for writes
system.mem_ctrls2.avgRdQLen                      1.22                       # Average read queue length when enqueuing
system.mem_ctrls2.avgWrQLen                      2.98                       # Average write queue length when enqueuing
system.mem_ctrls2.readRowHits                  248073                       # Number of row buffer hits during reads
system.mem_ctrls2.writeRowHits                 113244                       # Number of row buffer hits during writes
system.mem_ctrls2.readRowHitRate                76.72                       # Row buffer hit rate for reads
system.mem_ctrls2.writeRowHitRate               63.05                       # Row buffer hit rate for writes
system.mem_ctrls2.avgGap                    185561.65                       # Average gap between requests
system.mem_ctrls2.pageHitRate                   71.83                       # Row buffer hit rate, read and write combined
system.mem_ctrls2.memoryStateTime::IDLE   15439708250                       # Time in different power states
system.mem_ctrls2.memoryStateTime::REF     3116620000                       # Time in different power states
system.mem_ctrls2.memoryStateTime::PRE_PDN            0                       # Time in different power states
system.mem_ctrls2.memoryStateTime::ACT    74777943750                       # Time in different power states
system.mem_ctrls2.memoryStateTime::ACT_PDN            0                       # Time in different power states
system.mem_ctrls2.actEnergy::0              542838240                       # Energy for activate commands per rank (pJ)
system.mem_ctrls2.actEnergy::1              528096240                       # Energy for activate commands per rank (pJ)
system.mem_ctrls2.preEnergy::0              296191500                       # Energy for precharge commands per rank (pJ)
system.mem_ctrls2.preEnergy::1              288147750                       # Energy for precharge commands per rank (pJ)
system.mem_ctrls2.readEnergy::0            1267032000                       # Energy for read commands per rank (pJ)
system.mem_ctrls2.readEnergy::1            1255144800                       # Energy for read commands per rank (pJ)
system.mem_ctrls2.writeEnergy::0            583614720                       # Energy for write commands per rank (pJ)
system.mem_ctrls2.writeEnergy::1            580284000                       # Energy for write commands per rank (pJ)
system.mem_ctrls2.refreshEnergy::0         6096108720                       # Energy for refresh commands per rank (pJ)
system.mem_ctrls2.refreshEnergy::1         6096108720                       # Energy for refresh commands per rank (pJ)
system.mem_ctrls2.actBackEnergy::0        38277422325                       # Energy for active background per rank (pJ)
system.mem_ctrls2.actBackEnergy::1        37356763455                       # Energy for active background per rank (pJ)
system.mem_ctrls2.preBackEnergy::0        22423737000                       # Energy for precharge background per rank (pJ)
system.mem_ctrls2.preBackEnergy::1        23231332500                       # Energy for precharge background per rank (pJ)
system.mem_ctrls2.totalEnergy::0          69486944505                       # Total energy per rank (pJ)
system.mem_ctrls2.totalEnergy::1          69335877465                       # Total energy per rank (pJ)
system.mem_ctrls2.averagePower::0          744.497350                       # Core power per rank (mW)
system.mem_ctrls2.averagePower::1          742.878787                       # Core power per rank (mW)
system.mem_ctrls3.bytes_read::ruby.dir_cntrl3     20671680                       # Number of bytes read from this memory
system.mem_ctrls3.bytes_read::total          20671680                       # Number of bytes read from this memory
system.mem_ctrls3.bytes_written::ruby.dir_cntrl3     11491712                       # Number of bytes written to this memory
system.mem_ctrls3.bytes_written::total       11491712                       # Number of bytes written to this memory
system.mem_ctrls3.num_reads::ruby.dir_cntrl3       322995                       # Number of read requests responded to by this memory
system.mem_ctrls3.num_reads::total             322995                       # Number of read requests responded to by this memory
system.mem_ctrls3.num_writes::ruby.dir_cntrl3       179558                       # Number of write requests responded to by this memory
system.mem_ctrls3.num_writes::total            179558                       # Number of write requests responded to by this memory
system.mem_ctrls3.bw_read::ruby.dir_cntrl3    221469842                       # Total read bandwidth from this memory (bytes/s)
system.mem_ctrls3.bw_read::total            221469842                       # Total read bandwidth from this memory (bytes/s)
system.mem_ctrls3.bw_write::ruby.dir_cntrl3    123118568                       # Write bandwidth from this memory (bytes/s)
system.mem_ctrls3.bw_write::total           123118568                       # Write bandwidth from this memory (bytes/s)
system.mem_ctrls3.bw_total::ruby.dir_cntrl3    344588410                       # Total bandwidth to/from this memory (bytes/s)
system.mem_ctrls3.bw_total::total           344588410                       # Total bandwidth to/from this memory (bytes/s)
system.mem_ctrls3.readReqs                     322996                       # Number of read requests accepted
system.mem_ctrls3.writeReqs                    179558                       # Number of write requests accepted
system.mem_ctrls3.readBursts                   322996                       # Number of DRAM read bursts, including those serviced by the write queue
system.mem_ctrls3.writeBursts                  179558                       # Number of DRAM write bursts, including those merged in the write queue
system.mem_ctrls3.bytesReadDRAM              20671040                       # Total number of bytes read from DRAM
system.mem_ctrls3.bytesReadWrQ                    704                       # Total number of bytes read from write queue
system.mem_ctrls3.bytesWritten               11491712                       # Total number of bytes written to DRAM
system.mem_ctrls3.bytesReadSys               20671744                       # Total read bytes from the system interface side
system.mem_ctrls3.bytesWrittenSys            11491712                       # Total written bytes from the system interface side
system.mem_ctrls3.servicedByWrQ                    11                       # Number of DRAM read bursts serviced by the write queue
system.mem_ctrls3.mergedWrBursts                    0                       # Number of DRAM write bursts merged with an existing one
system.mem_ctrls3.neitherReadNorWriteReqs            0                       # Number of requests that are neither read nor write
system.mem_ctrls3.perBankRdBursts::0            19933                       # Per bank write bursts
system.mem_ctrls3.perBankRdBursts::1            20569                       # Per bank write bursts
system.mem_ctrls3.perBankRdBursts::2            20032                       # Per bank write bursts
system.mem_ctrls3.perBankRdBursts::3            20458                       # Per bank write bursts
system.mem_ctrls3.perBankRdBursts::4            20056                       # Per bank write bursts
system.mem_ctrls3.perBankRdBursts::5            20525                       # Per bank write bursts
system.mem_ctrls3.perBankRdBursts::6            20233                       # Per bank write bursts
system.mem_ctrls3.perBankRdBursts::7            20333                       # Per bank write bursts
system.mem_ctrls3.perBankRdBursts::8            20204                       # Per bank write bursts
system.mem_ctrls3.perBankRdBursts::9            20433                       # Per bank write bursts
system.mem_ctrls3.perBankRdBursts::10           20219                       # Per bank write bursts
system.mem_ctrls3.perBankRdBursts::11           20489                       # Per bank write bursts
system.mem_ctrls3.perBankRdBursts::12           19802                       # Per bank write bursts
system.mem_ctrls3.perBankRdBursts::13           19677                       # Per bank write bursts
system.mem_ctrls3.perBankRdBursts::14           19990                       # Per bank write bursts
system.mem_ctrls3.perBankRdBursts::15           20032                       # Per bank write bursts
system.mem_ctrls3.perBankWrBursts::0            11106                       # Per bank write bursts
system.mem_ctrls3.perBankWrBursts::1            11262                       # Per bank write bursts
system.mem_ctrls3.perBankWrBursts::2            11266                       # Per bank write bursts
system.mem_ctrls3.perBankWrBursts::3            11247                       # Per bank write bursts
system.mem_ctrls3.perBankWrBursts::4            11210                       # Per bank write bursts
system.mem_ctrls3.perBankWrBursts::5            11497                       # Per bank write bursts
system.mem_ctrls3.perBankWrBursts::6            11145                       # Per bank write bursts
system.mem_ctrls3.perBankWrBursts::7            11264                       # Per bank write bursts
system.mem_ctrls3.perBankWrBursts::8            11458                       # Per bank write bursts
system.mem_ctrls3.perBankWrBursts::9            11318                       # Per bank write bursts
system.mem_ctrls3.perBankWrBursts::10           11121                       # Per bank write bursts
system.mem_ctrls3.perBankWrBursts::11           11313                       # Per bank write bursts
system.mem_ctrls3.perBankWrBursts::12           10957                       # Per bank write bursts
system.mem_ctrls3.perBankWrBursts::13           10907                       # Per bank write bursts
system.mem_ctrls3.perBankWrBursts::14           11291                       # Per bank write bursts
system.mem_ctrls3.perBankWrBursts::15           11196                       # Per bank write bursts
system.mem_ctrls3.numRdRetry                     4542                       # Number of times read queue was full causing retry
system.mem_ctrls3.numWrRetry                     2437                       # Number of times write queue was full causing retry
system.mem_ctrls3.totGap                  93337835500                       # Total gap between requests
system.mem_ctrls3.readPktSize::0                    0                       # Read request sizes (log2)
system.mem_ctrls3.readPktSize::1                    0                       # Read request sizes (log2)
system.mem_ctrls3.readPktSize::2                    0                       # Read request sizes (log2)
system.mem_ctrls3.readPktSize::3                    0                       # Read request sizes (log2)
system.mem_ctrls3.readPktSize::4                    0                       # Read request sizes (log2)
system.mem_ctrls3.readPktSize::5                    0                       # Read request sizes (log2)
system.mem_ctrls3.readPktSize::6               322996                       # Read request sizes (log2)
system.mem_ctrls3.writePktSize::0                   0                       # Write request sizes (log2)
system.mem_ctrls3.writePktSize::1                   0                       # Write request sizes (log2)
system.mem_ctrls3.writePktSize::2                   0                       # Write request sizes (log2)
system.mem_ctrls3.writePktSize::3                   0                       # Write request sizes (log2)
system.mem_ctrls3.writePktSize::4                   0                       # Write request sizes (log2)
system.mem_ctrls3.writePktSize::5                   0                       # Write request sizes (log2)
system.mem_ctrls3.writePktSize::6              179558                       # Write request sizes (log2)
system.mem_ctrls3.rdQLenPdf::0                 150582                       # What read queue length does an incoming req see
system.mem_ctrls3.rdQLenPdf::1                  33468                       # What read queue length does an incoming req see
system.mem_ctrls3.rdQLenPdf::2                  26445                       # What read queue length does an incoming req see
system.mem_ctrls3.rdQLenPdf::3                  20337                       # What read queue length does an incoming req see
system.mem_ctrls3.rdQLenPdf::4                  15647                       # What read queue length does an incoming req see
system.mem_ctrls3.rdQLenPdf::5                  12406                       # What read queue length does an incoming req see
system.mem_ctrls3.rdQLenPdf::6                  10001                       # What read queue length does an incoming req see
system.mem_ctrls3.rdQLenPdf::7                   8100                       # What read queue length does an incoming req see
system.mem_ctrls3.rdQLenPdf::8                   6405                       # What read queue length does an incoming req see
system.mem_ctrls3.rdQLenPdf::9                   5163                       # What read queue length does an incoming req see
system.mem_ctrls3.rdQLenPdf::10                  4311                       # What read queue length does an incoming req see
system.mem_ctrls3.rdQLenPdf::11                  3657                       # What read queue length does an incoming req see
system.mem_ctrls3.rdQLenPdf::12                  3061                       # What read queue length does an incoming req see
system.mem_ctrls3.rdQLenPdf::13                  2469                       # What read queue length does an incoming req see
system.mem_ctrls3.rdQLenPdf::14                  2068                       # What read queue length does an incoming req see
system.mem_ctrls3.rdQLenPdf::15                  1828                       # What read queue length does an incoming req see
system.mem_ctrls3.rdQLenPdf::16                  1507                       # What read queue length does an incoming req see
system.mem_ctrls3.rdQLenPdf::17                  1324                       # What read queue length does an incoming req see
system.mem_ctrls3.rdQLenPdf::18                  1200                       # What read queue length does an incoming req see
system.mem_ctrls3.rdQLenPdf::19                  1102                       # What read queue length does an incoming req see
system.mem_ctrls3.rdQLenPdf::20                   925                       # What read queue length does an incoming req see
system.mem_ctrls3.rdQLenPdf::21                   849                       # What read queue length does an incoming req see
system.mem_ctrls3.rdQLenPdf::22                   775                       # What read queue length does an incoming req see
system.mem_ctrls3.rdQLenPdf::23                   710                       # What read queue length does an incoming req see
system.mem_ctrls3.rdQLenPdf::24                   599                       # What read queue length does an incoming req see
[...]
system.ruby.L2Cache_Controller.MT_MB.L1_PUTX::total           29                      
system.ruby.L2Cache_Controller.MT_MB.Exclusive_Unblock |      152827      5.69%      5.69% |       82579      3.08%      8.77% |       81274      3.03%     11.80% |       82225      3.06%     14.86% |       81365      3.03%     17.89% |       81087      3.02%     20.91% |       81214      3.03%     23.94% |       80768      3.01%     26.95% |       80910      3.01%     29.96% |       81831      3.05%     33.01% |       82937      3.09%     36.10% |       82352      3.07%     39.17% |       81628      3.04%     42.21% |       80627      3.00%     45.21% |       80137      2.99%     48.20% |       80344      2.99%     51.19% |       81457      3.03%     54.23% |       81162      3.02%     57.25% |       81802      3.05%     60.30% |       82054      3.06%     63.36% |       81548      3.04%     66.39% |       83754      3.12%     69.51% |       81759      3.05%     72.56% |       81076      3.02%     75.58% |       81168      3.02%     78.60% |       81537      3.04%     81.64% |       81249      3.03%     84.67% |       81113      3.02%     87.69% |       81262      3.03%     90.72% |       80631      3.00%     93.72% |       83448      3.11%     96.83% |       85041      3.17%    100.00%
system.ruby.L2Cache_Controller.MT_MB.Exclusive_Unblock::total      2684166                      
system.ruby.L2Cache_Controller.MT_IIB.L1_GETS |           0      0.00%      0.00% |           0      0.00%      0.00% |           0      0.00%      0.00% |           0      0.00%      0.00% |           0      0.00%      0.00% |           0      0.00%      0.00% |           1      9.09%      9.09% |           1      9.09%     18.18% |           1      9.09%     27.27% |           1      9.09%     36.36% |           0      0.00%     36.36% |           0      0.00%     36.36% |           0      0.00%     36.36% |           0      0.00%     36.36% |           0      0.00%     36.36% |           0      0.00%     36.36% |           1      9.09%     45.45% |           1      9.09%     54.55% |           0      0.00%     54.55% |           1      9.09%     63.64% |           0      0.00%     63.64% |           1      9.09%     72.73% |           0      0.00%     72.73% |           1      9.09%     81.82% |           0      0.00%     81.82% |           0      0.00%     81.82% |           0      0.00%     81.82% |           0      0.00%     81.82% |           0      0.00%     81.82% |           1      9.09%     90.91% |           0      0.00%     90.91% |           1      9.09%    100.00%
system.ruby.L2Cache_Controller.MT_IIB.L1_GETS::total           11                      
system.ruby.L2Cache_Controller.MT_IIB.L1_PUTX |           5      1.86%      1.86% |           7      2.60%      4.46% |           3      1.12%      5.58% |           8      2.97%      8.55% |           9      3.35%     11.90% |           7      2.60%     14.50% |           5      1.86%     16.36% |           7      2.60%     18.96% |           6      2.23%     21.19% |           5      1.86%     23.05% |           8      2.97%     26.02% |           7      2.60%     28.62% |          13      4.83%     33.46% |          14      5.20%     38.66% |          12      4.46%     43.12% |           5      1.86%     44.98% |           7      2.60%     47.58% |           6      2.23%     49.81% |          12      4.46%     54.28% |           9      3.35%     57.62% |          11      4.09%     61.71% |           8      2.97%     64.68% |           9      3.35%     68.03% |           7      2.60%     70.63% |           9      3.35%     73.98% |           9      3.35%     77.32% |          16      5.95%     83.27% |           8      2.97%     86.25% |          10      3.72%     89.96% |           9      3.35%     93.31% |          10      3.72%     97.03% |           8      2.97%    100.00%
system.ruby.L2Cache_Controller.MT_IIB.L1_PUTX::total          269                      
system.ruby.L2Cache_Controller.MT_IIB.WB_Data |           0      0.00%      0.00% |           0      0.00%      0.00% |           0      0.00%      0.00% |           0      0.00%      0.00% |           0      0.00%      0.00% |           0      0.00%      0.00% |           0      0.00%      0.00% |           0      0.00%      0.00% |           0      0.00%      0.00% |           0      0.00%      0.00% |           1      7.14%      7.14% |           3     21.43%     28.57% |           1      7.14%     35.71% |           0      0.00%     35.71% |           0      0.00%     35.71% |           0      0.00%     35.71% |           0      0.00%     35.71% |           0      0.00%     35.71% |           0      0.00%     35.71% |           0      0.00%     35.71% |           0      0.00%     35.71% |           1      7.14%     42.86% |           0      0.00%     42.86% |           1      7.14%     50.00% |           0      0.00%     50.00% |           3     21.43%     71.43% |           0      0.00%     71.43% |           0      0.00%     71.43% |           0      0.00%     71.43% |           2     14.29%     85.71% |           1      7.14%     92.86% |           1      7.14%    100.00%
system.ruby.L2Cache_Controller.MT_IIB.WB_Data::total           14                      
system.ruby.L2Cache_Controller.MT_IIB.WB_Data_clean |        1823      3.15%      3.15% |        1842      3.18%      6.33% |        1843      3.18%      9.51% |        1821      3.15%     12.66% |        1823      3.15%     15.81% |        1776      3.07%     18.87% |        1820      3.14%     22.02% |        1857      3.21%     25.23% |        1800      3.11%     28.33% |        1814      3.13%     31.47% |        1861      3.21%     34.68% |        1864      3.22%     37.90% |        1878      3.24%     41.15% |        1772      3.06%     44.21% |        1803      3.11%     47.32% |        1837      3.17%     50.49% |        1812      3.13%     53.62% |        1757      3.03%     56.66% |        1790      3.09%     59.75% |        1789      3.09%     62.84% |        1816      3.14%     65.98% |        1782      3.08%     69.05% |        1812      3.13%     72.18% |        1776      3.07%     75.25% |        1806      3.12%     78.37% |        1802      3.11%     81.48% |        1800      3.11%     84.59% |        1757      3.03%     87.63% |        1810      3.13%     90.75% |        1756      3.03%     93.79% |        1830      3.16%     96.95% |        1768      3.05%    100.00%
system.ruby.L2Cache_Controller.MT_IIB.WB_Data_clean::total        57897                      
system.ruby.L2Cache_Controller.MT_IIB.Unblock |          23      1.18%      1.18% |          38      1.95%      3.12% |          62      3.17%      6.30% |          78      3.99%     10.29% |          52      2.66%     12.95% |          57      2.92%     15.87% |          54      2.76%     18.64% |          43      2.20%     20.84% |          90      4.61%     25.45% |          54      2.76%     28.21% |          62      3.17%     31.39% |          61      3.12%     34.51% |          42      2.15%     36.66% |          94      4.81%     41.47% |          63      3.23%     44.70% |          40      2.05%     46.75% |          50      2.56%     49.31% |          80      4.10%     53.41% |          78      3.99%     57.40% |          53      2.71%     60.11% |          92      4.71%     64.82% |          73      3.74%     68.56% |          78      3.99%     72.56% |          61      3.12%     75.68% |          67      3.43%     79.11% |          54      2.76%     81.87% |          52      2.66%     84.54% |          68      3.48%     88.02% |          56      2.87%     90.89% |          64      3.28%     94.16% |          41      2.10%     96.26% |          73      3.74%    100.00%
system.ruby.L2Cache_Controller.MT_IIB.Unblock::total         1953                      
system.ruby.L2Cache_Controller.MT_IB.L1_PUTX |           0      0.00%      0.00% |           0      0.00%      0.00% |           0      0.00%      0.00% |           0      0.00%      0.00% |           0      0.00%      0.00% |           0      0.00%      0.00% |           0      0.00%      0.00% |           0      0.00%      0.00% |           0      0.00%      0.00% |           0      0.00%      0.00% |           0      0.00%      0.00% |           0      0.00%      0.00% |           0      0.00%      0.00% |           0      0.00%      0.00% |           0      0.00%      0.00% |           0      0.00%      0.00% |           0      0.00%      0.00% |           1    100.00%    100.00% |           0      0.00%    100.00% |           0      0.00%    100.00% |           0      0.00%    100.00% |           0      0.00%    100.00% |           0      0.00%    100.00% |           0      0.00%    100.00% |           0      0.00%    100.00% |           0      0.00%    100.00% |           0      0.00%    100.00% |           0      0.00%    100.00% |           0      0.00%    100.00% |           0      0.00%    100.00% |           0      0.00%    100.00% |           0      0.00%    100.00%
system.ruby.L2Cache_Controller.MT_IB.L1_PUTX::total            1                      
system.ruby.L2Cache_Controller.MT_IB.WB_Data_clean |          23      1.18%      1.18% |          38      1.95%      3.12% |          62      3.17%      6.30% |          78      3.99%     10.29% |          52      2.66%     12.95% |          57      2.92%     15.87% |          54      2.76%     18.64% |          43      2.20%     20.84% |          90      4.61%     25.45% |          54      2.76%     28.21% |          62      3.17%     31.39% |          61      3.12%     34.51% |          42      2.15%     36.66% |          94      4.81%     41.47% |          63      3.23%     44.70% |          40      2.05%     46.75% |          50      2.56%     49.31% |          80      4.10%     53.41% |          78      3.99%     57.40% |          53      2.71%     60.11% |          92      4.71%     64.82% |          73      3.74%     68.56% |          78      3.99%     72.56% |          61      3.12%     75.68% |          67      3.43%     79.11% |          54      2.76%     81.87% |          52      2.66%     84.54% |          68      3.48%     88.02% |          56      2.87%     90.89% |          64      3.28%     94.16% |          41      2.10%     96.26% |          73      3.74%    100.00%
system.ruby.L2Cache_Controller.MT_IB.WB_Data_clean::total         1953                      
system.ruby.L2Cache_Controller.MT_SB.L1_GETS |           0      0.00%      0.00% |           0      0.00%      0.00% |           0      0.00%      0.00% |           0      0.00%      0.00% |           0      0.00%      0.00% |           0      0.00%      0.00% |           0      0.00%      0.00% |           0      0.00%      0.00% |           0      0.00%      0.00% |           0      0.00%      0.00% |           0      0.00%      0.00% |           0      0.00%      0.00% |           0      0.00%      0.00% |           0      0.00%      0.00% |           1     33.33%     33.33% |           0      0.00%     33.33% |           0      0.00%     33.33% |           0      0.00%     33.33% |           0      0.00%     33.33% |           0      0.00%     33.33% |           0      0.00%     33.33% |           0      0.00%     33.33% |           1     33.33%     66.67% |           0      0.00%     66.67% |           0      0.00%     66.67% |           0      0.00%     66.67% |           0      0.00%     66.67% |           0      0.00%     66.67% |           0      0.00%     66.67% |           0      0.00%     66.67% |           0      0.00%     66.67% |           1     33.33%    100.00%
system.ruby.L2Cache_Controller.MT_SB.L1_GETS::total            3                      
system.ruby.L2Cache_Controller.MT_SB.L1_PUTX |           1      5.88%      5.88% |           0      0.00%      5.88% |           0      0.00%      5.88% |           0      0.00%      5.88% |           1      5.88%     11.76% |           1      5.88%     17.65% |           2     11.76%     29.41% |           1      5.88%     35.29% |           1      5.88%     41.18% |           1      5.88%     47.06% |           0      0.00%     47.06% |           1      5.88%     52.94% |           0      0.00%     52.94% |           0      0.00%     52.94% |           0      0.00%     52.94% |           0      0.00%     52.94% |           1      5.88%     58.82% |           1      5.88%     64.71% |           1      5.88%     70.59% |           0      0.00%     70.59% |           1      5.88%     76.47% |           0      0.00%     76.47% |           0      0.00%     76.47% |           0      0.00%     76.47% |           0      0.00%     76.47% |           2     11.76%     88.24% |           0      0.00%     88.24% |           0      0.00%     88.24% |           0      0.00%     88.24% |           0      0.00%     88.24% |           2     11.76%    100.00% |           0      0.00%    100.00%
system.ruby.L2Cache_Controller.MT_SB.L1_PUTX::total           17                      
system.ruby.L2Cache_Controller.MT_SB.Unblock |        1823      3.15%      3.15% |        1842      3.18%      6.33% |        1843      3.18%      9.51% |        1821      3.14%     12.66% |        1823      3.15%     15.80% |        1776      3.07%     18.87% |        1820      3.14%     22.01% |        1857      3.21%     25.22% |        1800      3.11%     28.33% |        1814      3.13%     31.46% |        1862      3.22%     34.68% |        1867      3.22%     37.90% |        1879      3.24%     41.14% |        1772      3.06%     44.20% |        1803      3.11%     47.32% |        1837      3.17%     50.49% |        1812      3.13%     53.62% |        1757      3.03%     56.65% |        1790      3.09%     59.74% |        1789      3.09%     62.83% |        1816      3.14%     65.97% |        1783      3.08%     69.05% |        1812      3.13%     72.18% |        1777      3.07%     75.24% |        1806      3.12%     78.36% |        1805      3.12%     81.48% |        1800      3.11%     84.59% |        1757      3.03%     87.62% |        1810      3.13%     90.75% |        1758      3.04%     93.78% |        1831      3.16%     96.95% |        1769      3.05%    100.00%
system.ruby.L2Cache_Controller.MT_SB.Unblock::total        57911                      
system.ruby.SimicsNetworkPortInterface_Controller.MessageSend |      613180     22.89%     22.89% |     1339123     50.00%     72.89% |       95111      3.55%     76.45% |       97581      3.64%     80.09% |       93474      3.49%     83.58% |       95004      3.55%     87.13% |       83048      3.10%     90.23% |       92671      3.46%     93.69% |       89629      3.35%     97.03% |       79425      2.97%    100.00% |           0      0.00%    100.00% |           0      0.00%    100.00% |           0      0.00%    100.00% |           0      0.00%    100.00% |           0      0.00%    100.00% |           0      0.00%    100.00% |           0      0.00%    100.00% |           0      0.00%    100.00% |           0      0.00%    100.00% |           0      0.00%    100.00% |           0      0.00%    100.00% |           0      0.00%    100.00% |           0      0.00%    100.00% |           0      0.00%    100.00% |           0      0.00%    100.00% |           0      0.00%    100.00% |           0      0.00%    100.00% |           0      0.00%    100.00% |           0      0.00%    100.00% |           0      0.00%    100.00% |           0      0.00%    100.00% |           0      0.00%    100.00%
system.ruby.SimicsNetworkPortInterface_Controller.MessageSend::total      2678246                      
system.ruby.SimicsNetworkPortInterface_Controller.MessageRecv |      613180     22.89%     22.89% |     1339123     50.00%     72.89% |       95111      3.55%     76.45% |       97581      3.64%     80.09% |       93474      3.49%     83.58% |       95004      3.55%     87.13% |       83048      3.10%     90.23% |       92671      3.46%     93.69% |       89629      3.35%     97.03% |       79425      2.97%    100.00% |           0      0.00%    100.00% |           0      0.00%    100.00% |           0      0.00%    100.00% |           0      0.00%    100.00% |           0      0.00%    100.00% |           0      0.00%    100.00% |           0      0.00%    100.00% |           0      0.00%    100.00% |           0      0.00%    100.00% |           0      0.00%    100.00% |           0      0.00%    100.00% |           0      0.00%    100.00% |           0      0.00%    100.00% |           0      0.00%    100.00% |           0      0.00%    100.00% |           0      0.00%    100.00% |           0      0.00%    100.00% |           0      0.00%    100.00% |           0      0.00%    100.00% |           0      0.00%    100.00% |           0      0.00%    100.00% |           0      0.00%    100.00%
system.ruby.SimicsNetworkPortInterface_Controller.MessageRecv::total      2678246                      
system.ruby.SimicsNetworkPortInterface_Controller.A.MessageSend |      613180     22.89%     22.89% |     1339123     50.00%     72.89% |       95111      3.55%     76.45% |       97581      3.64%     80.09% |       93474      3.49%     83.58% |       95004      3.55%     87.13% |       83048      3.10%     90.23% |       92671      3.46%     93.69% |       89629      3.35%     97.03% |       79425      2.97%    100.00% |           0      0.00%    100.00% |           0      0.00%    100.00% |           0      0.00%    100.00% |           0      0.00%    100.00% |           0      0.00%    100.00% |           0      0.00%    100.00% |           0      0.00%    100.00% |           0      0.00%    100.00% |           0      0.00%    100.00% |           0      0.00%    100.00% |           0      0.00%    100.00% |           0      0.00%    100.00% |           0      0.00%    100.00% |           0      0.00%    100.00% |           0      0.00%    100.00% |           0      0.00%    100.00% |           0      0.00%    100.00% |           0      0.00%    100.00% |           0      0.00%    100.00% |           0      0.00%    100.00% |           0      0.00%    100.00% |           0      0.00%    100.00%
system.ruby.SimicsNetworkPortInterface_Controller.A.MessageSend::total      2678246                      
system.ruby.SimicsNetworkPortInterface_Controller.A.MessageRecv |      613180     22.89%     22.89% |     1339123     50.00%     72.89% |       95111      3.55%     76.45% |       97581      3.64%     80.09% |       93474      3.49%     83.58% |       95004      3.55%     87.13% |       83048      3.10%     90.23% |       92671      3.46%     93.69% |       89629      3.35%     97.03% |       79425      2.97%    100.00% |           0      0.00%    100.00% |           0      0.00%    100.00% |           0      0.00%    100.00% |           0      0.00%    100.00% |           0      0.00%    100.00% |           0      0.00%    100.00% |           0      0.00%    100.00% |           0      0.00%    100.00% |           0      0.00%    100.00% |           0      0.00%    100.00% |           0      0.00%    100.00% |           0      0.00%    100.00% |           0      0.00%    100.00% |           0      0.00%    100.00% |           0      0.00%    100.00% |           0      0.00%    100.00% |           0      0.00%    100.00% |           0      0.00%    100.00% |           0      0.00%    100.00% |           0      0.00%    100.00% |           0      0.00%    100.00% |           0      0.00%    100.00%
system.ruby.SimicsNetworkPortInterface_Controller.A.MessageRecv::total      2678246                      
system.switch_cpus.kern.inst.arm                    0                       # number of arm instructions executed
system.switch_cpus.kern.inst.quiesce                0                       # number of quiesce instructions executed

---------- End Simulation Statistics   ----------
