
---------- Begin Simulation Statistics ----------
sim_seconds                                  0.093994                       # Number of seconds simulated
sim_ticks                                 93994344000                       # Number of ticks simulated
final_tick                               5270162422500                       # Number of ticks from beginning of simulation (restored from checkpoints and never reset)
sim_freq                                 1000000000000                       # Frequency of simulated ticks
host_inst_rate                                  26291                       # Simulator instruction rate (inst/s)
host_op_rate                                    46276                       # Simulator op (including micro ops) rate (op/s)
host_tick_rate                               56992910                       # Simulator tick rate (ticks/s)
host_mem_usage                                5545184                       # Number of bytes of host memory used
host_seconds                                  1649.23                       # Real time elapsed on the host
sim_insts                                    43360304                       # Number of instructions simulated
sim_ops                                      76319447                       # Number of ops (including micro ops) simulated
system.voltage_domain.voltage                       1                       # Voltage in Volts
system.clk_domain.clock                           500                       # Clock period in ticks
system.mem_ctrls0.bytes_read::ruby.dir_cntrl0     21076160                       # Number of bytes read from this memory
system.mem_ctrls0.bytes_read::total          21076160                       # Number of bytes read from this memory
system.mem_ctrls0.bytes_written::ruby.dir_cntrl0     11912768                       # Number of bytes written to this memory
system.mem_ctrls0.bytes_written::total       11912768                       # Number of bytes written to this memory
system.mem_ctrls0.num_reads::ruby.dir_cntrl0       329315                       # Number of read requests responded to by this memory
system.mem_ctrls0.num_reads::total             329315                       # Number of read requests responded to by this memory
system.mem_ctrls0.num_writes::ruby.dir_cntrl0       186137                       # Number of write requests responded to by this memory
system.mem_ctrls0.num_writes::total            186137                       # Number of write requests responded to by this memory
system.mem_ctrls0.bw_read::ruby.dir_cntrl0    224227960                       # Total read bandwidth from this memory (bytes/s)
system.mem_ctrls0.bw_read::total            224227960                       # Total read bandwidth from this memory (bytes/s)
system.mem_ctrls0.bw_write::ruby.dir_cntrl0    126739200                       # Write bandwidth from this memory (bytes/s)
system.mem_ctrls0.bw_write::total           126739200                       # Write bandwidth from this memory (bytes/s)
system.mem_ctrls0.bw_total::ruby.dir_cntrl0    350967160                       # Total bandwidth to/from this memory (bytes/s)
system.mem_ctrls0.bw_total::total           350967160                       # Total bandwidth to/from this memory (bytes/s)
system.mem_ctrls0.readReqs                     329315                       # Number of read requests accepted
system.mem_ctrls0.writeReqs                    186137                       # Number of write requests accepted
system.mem_ctrls0.readBursts                   329315                       # Number of DRAM read bursts, including those serviced by the write queue
system.mem_ctrls0.writeBursts                  186137                       # Number of DRAM write bursts, including those merged in the write queue
system.mem_ctrls0.bytesReadDRAM              21073600                       # Total number of bytes read from DRAM
system.mem_ctrls0.bytesReadWrQ                   2560                       # Total number of bytes read from write queue
system.mem_ctrls0.bytesWritten               11912576                       # Total number of bytes written to DRAM
system.mem_ctrls0.bytesReadSys               21076160                       # Total read bytes from the system interface side
system.mem_ctrls0.bytesWrittenSys            11912768                       # Total written bytes from the system interface side
system.mem_ctrls0.servicedByWrQ                    40                       # Number of DRAM read bursts serviced by the write queue
system.mem_ctrls0.mergedWrBursts                    0                       # Number of DRAM write bursts merged with an existing one
system.mem_ctrls0.neitherReadNorWriteReqs            0                       # Number of requests that are neither read nor write
system.mem_ctrls0.perBankRdBursts::0            20263                       # Per bank write bursts
system.mem_ctrls0.perBankRdBursts::1            20967                       # Per bank write bursts
system.mem_ctrls0.perBankRdBursts::2            20476                       # Per bank write bursts
system.mem_ctrls0.perBankRdBursts::3            20820                       # Per bank write bursts
system.mem_ctrls0.perBankRdBursts::4            20460                       # Per bank write bursts
system.mem_ctrls0.perBankRdBursts::5            20989                       # Per bank write bursts
system.mem_ctrls0.perBankRdBursts::6            20606                       # Per bank write bursts
system.mem_ctrls0.perBankRdBursts::7            20709                       # Per bank write bursts
system.mem_ctrls0.perBankRdBursts::8            20610                       # Per bank write bursts
system.mem_ctrls0.perBankRdBursts::9            20843                       # Per bank write bursts
system.mem_ctrls0.perBankRdBursts::10           20566                       # Per bank write bursts
system.mem_ctrls0.perBankRdBursts::11           20862                       # Per bank write bursts
system.mem_ctrls0.perBankRdBursts::12           20233                       # Per bank write bursts
system.mem_ctrls0.perBankRdBursts::13           20120                       # Per bank write bursts
system.mem_ctrls0.perBankRdBursts::14           20413                       # Per bank write bursts
system.mem_ctrls0.perBankRdBursts::15           20338                       # Per bank write bursts
system.mem_ctrls0.perBankWrBursts::0            11510                       # Per bank write bursts
system.mem_ctrls0.perBankWrBursts::1            11660                       # Per bank write bursts
system.mem_ctrls0.perBankWrBursts::2            11658                       # Per bank write bursts
system.mem_ctrls0.perBankWrBursts::3            11651                       # Per bank write bursts
system.mem_ctrls0.perBankWrBursts::4            11609                       # Per bank write bursts
system.mem_ctrls0.perBankWrBursts::5            11923                       # Per bank write bursts
system.mem_ctrls0.perBankWrBursts::6            11562                       # Per bank write bursts
system.mem_ctrls0.perBankWrBursts::7            11668                       # Per bank write bursts
system.mem_ctrls0.perBankWrBursts::8            11902                       # Per bank write bursts
system.mem_ctrls0.perBankWrBursts::9            11736                       # Per bank write bursts
system.mem_ctrls0.perBankWrBursts::10           11530                       # Per bank write bursts
system.mem_ctrls0.perBankWrBursts::11           11709                       # Per bank write bursts
system.mem_ctrls0.perBankWrBursts::12           11351                       # Per bank write bursts
system.mem_ctrls0.perBankWrBursts::13           11320                       # Per bank write bursts
system.mem_ctrls0.perBankWrBursts::14           11748                       # Per bank write bursts
system.mem_ctrls0.perBankWrBursts::15           11597                       # Per bank write bursts
system.mem_ctrls0.numRdRetry                     5092                       # Number of times read queue was full causing retry
system.mem_ctrls0.numWrRetry                     4758                       # Number of times write queue was full causing retry
system.mem_ctrls0.totGap                  93993780500                       # Total gap between requests
system.mem_ctrls0.readPktSize::0                    0                       # Read request sizes (log2)
system.mem_ctrls0.readPktSize::1                    0                       # Read request sizes (log2)
system.mem_ctrls0.readPktSize::2                    0                       # Read request sizes (log2)
system.mem_ctrls0.readPktSize::3                    0                       # Read request sizes (log2)
system.mem_ctrls0.readPktSize::4                    0                       # Read request sizes (log2)
system.mem_ctrls0.readPktSize::5                    0                       # Read request sizes (log2)
system.mem_ctrls0.readPktSize::6               329315                       # Read request sizes (log2)
system.mem_ctrls0.writePktSize::0                   0                       # Write request sizes (log2)
system.mem_ctrls0.writePktSize::1                   0                       # Write request sizes (log2)
system.mem_ctrls0.writePktSize::2                   0                       # Write request sizes (log2)
system.mem_ctrls0.writePktSize::3                   0                       # Write request sizes (log2)
system.mem_ctrls0.writePktSize::4                   0                       # Write request sizes (log2)
system.mem_ctrls0.writePktSize::5                   0                       # Write request sizes (log2)
system.mem_ctrls0.writePktSize::6              186137                       # Write request sizes (log2)
system.mem_ctrls0.rdQLenPdf::0                 146355                       # What read queue length does an incoming req see
system.mem_ctrls0.rdQLenPdf::1                  29973                       # What read queue length does an incoming req see
system.mem_ctrls0.rdQLenPdf::2                  24215                       # What read queue length does an incoming req see
system.mem_ctrls0.rdQLenPdf::3                  18963                       # What read queue length does an incoming req see
system.mem_ctrls0.rdQLenPdf::4                  15178                       # What read queue length does an incoming req see
system.mem_ctrls0.rdQLenPdf::5                  12675                       # What read queue length does an incoming req see
system.mem_ctrls0.rdQLenPdf::6                  10577                       # What read queue length does an incoming req see
system.mem_ctrls0.rdQLenPdf::7                   8996                       # What read queue length does an incoming req see
system.mem_ctrls0.rdQLenPdf::8                   7603                       # What read queue length does an incoming req see
system.mem_ctrls0.rdQLenPdf::9                   6630                       # What read queue length does an incoming req see
system.mem_ctrls0.rdQLenPdf::10                  5565                       # What read queue length does an incoming req see
system.mem_ctrls0.rdQLenPdf::11                  4757                       # What read queue length does an incoming req see
system.mem_ctrls0.rdQLenPdf::12                  4138                       # What read queue length does an incoming req see
system.mem_ctrls0.rdQLenPdf::13                  3607                       # What read queue length does an incoming req see
system.mem_ctrls0.rdQLenPdf::14                  3150                       # What read queue length does an incoming req see
system.mem_ctrls0.rdQLenPdf::15                  2766                       # What read queue length does an incoming req see
system.mem_ctrls0.rdQLenPdf::16                  2366                       # What read queue length does an incoming req see
system.mem_ctrls0.rdQLenPdf::17                  2041                       # What read queue length does an incoming req see
system.mem_ctrls0.rdQLenPdf::18                  1808                       # What read queue length does an incoming req see
system.mem_ctrls0.rdQLenPdf::19                  1693                       # What read queue length does an incoming req see
system.mem_ctrls0.rdQLenPdf::20                  1505                       # What read queue length does an incoming req see
system.mem_ctrls0.rdQLenPdf::21                  1360                       # What read queue length does an incoming req see
system.mem_ctrls0.rdQLenPdf::22                  1249                       # What read queue length does an incoming req see
system.mem_ctrls0.rdQLenPdf::23                  1068                       # What read queue length does an incoming req see
system.mem_ctrls0.rdQLenPdf::24                   983                       # What read queue length does an incoming req see
system.mem_ctrls0.rdQLenPdf::25                   853                       # What read queue length does an incoming req see
system.mem_ctrls0.rdQLenPdf::26                   791                       # What read queue length does an incoming req see
system.mem_ctrls0.rdQLenPdf::27                   742                       # What read queue length does an incoming req see
system.mem_ctrls0.rdQLenPdf::28                   683                       # What read queue length does an incoming req see
system.mem_ctrls0.rdQLenPdf::29                   630                       # What read queue length does an incoming req see
system.mem_ctrls0.rdQLenPdf::30                   644                       # What read queue length does an incoming req see
system.mem_ctrls0.rdQLenPdf::31                  5711                       # What read queue length does an incoming req see
system.mem_ctrls0.wrQLenPdf::0                  31174                       # What write queue length does an incoming req see
system.mem_ctrls0.wrQLenPdf::1                  33610                       # What write queue length does an incoming req see
system.mem_ctrls0.wrQLenPdf::2                  34465                       # What write queue length does an incoming req see
system.mem_ctrls0.wrQLenPdf::3                  34888                       # What write queue length does an incoming req see
system.mem_ctrls0.wrQLenPdf::4                  34830                       # What write queue length does an incoming req see
system.mem_ctrls0.wrQLenPdf::5                   5105                       # What write queue length does an incoming req see
system.mem_ctrls0.wrQLenPdf::6                   4233                       # What write queue length does an incoming req see
system.mem_ctrls0.wrQLenPdf::7                   7832                       # What write queue length does an incoming req see
system.mem_ctrls0.bytesPerActivate::samples       129834                       # Bytes accessed per row activation
system.mem_ctrls0.bytesPerActivate::mean   254.056842                       # Bytes accessed per row activation
system.mem_ctrls0.bytesPerActivate::gmean   186.812181                       # Bytes accessed per row activation
system.mem_ctrls0.bytesPerActivate::stdev   215.756627                       # Bytes accessed per row activation
system.mem_ctrls0.bytesPerActivate::0-127        33049     25.45%     25.45% # Bytes accessed per row activation
system.mem_ctrls0.bytesPerActivate::128-255        36090     27.80%     53.25% # Bytes accessed per row activation
system.mem_ctrls0.bytesPerActivate::256-383        40540     31.22%     84.48% # Bytes accessed per row activation
system.mem_ctrls0.bytesPerActivate::384-511         6309      4.86%     89.34% # Bytes accessed per row activation
system.mem_ctrls0.bytesPerActivate::512-639         4529      3.49%     92.82% # Bytes accessed per row activation
system.mem_ctrls0.bytesPerActivate::640-767         2260      1.74%     94.56% # Bytes accessed per row activation
system.mem_ctrls0.bytesPerActivate::768-895         1786      1.38%     95.94% # Bytes accessed per row activation
system.mem_ctrls0.bytesPerActivate::896-1023         1272      0.98%     96.92% # Bytes accessed per row activation
system.mem_ctrls0.bytesPerActivate::1024-1151         3999      3.08%    100.00% # Bytes accessed per row activation
system.mem_ctrls0.bytesPerActivate::total       129834                       # Bytes accessed per row activation
system.mem_ctrls0.rdPerTurnAround::samples        31747                       # Reads before turning the bus around for writes
system.mem_ctrls0.rdPerTurnAround::mean     10.371563                       # Reads before turning the bus around for writes
system.mem_ctrls0.rdPerTurnAround::stdev    26.006393                       # Reads before turning the bus around for writes
system.mem_ctrls0.rdPerTurnAround::0-127        31720     99.91%     99.91% # Reads before turning the bus around for writes
system.mem_ctrls0.rdPerTurnAround::128-255           26      0.08%    100.00% # Reads before turning the bus around for writes
system.mem_ctrls0.rdPerTurnAround::3968-4095            1      0.00%    100.00% # Reads before turning the bus around for writes
system.mem_ctrls0.rdPerTurnAround::total        31747                       # Reads before turning the bus around for writes
system.mem_ctrls0.wrPerTurnAround::samples        31747                       # Writes before turning the bus around for reads
system.mem_ctrls0.wrPerTurnAround::mean      5.863042                       # Writes before turning the bus around for reads
system.mem_ctrls0.wrPerTurnAround::gmean     5.603151                       # Writes before turning the bus around for reads
system.mem_ctrls0.wrPerTurnAround::stdev     2.249485                       # Writes before turning the bus around for reads
system.mem_ctrls0.wrPerTurnAround::4-7          28026     88.28%     88.28% # Writes before turning the bus around for reads
system.mem_ctrls0.wrPerTurnAround::8-11          2261      7.12%     95.40% # Writes before turning the bus around for reads
system.mem_ctrls0.wrPerTurnAround::12-15          776      2.44%     97.85% # Writes before turning the bus around for reads
system.mem_ctrls0.wrPerTurnAround::16-19          684      2.15%    100.00% # Writes before turning the bus around for reads
system.mem_ctrls0.wrPerTurnAround::total        31747                       # Writes before turning the bus around for reads
system.mem_ctrls0.totQLat                 15547000837                       # Total ticks spent queuing
system.mem_ctrls0.totMemAccLat            21720907087                       # Total ticks spent from burst creation until serviced by the DRAM
system.mem_ctrls0.totBusLat                1646375000                       # Total ticks spent in databus transfers
system.mem_ctrls0.avgQLat                    47215.86                       # Average queueing delay per DRAM burst
system.mem_ctrls0.avgBusLat                   5000.00                       # Average bus latency per DRAM burst
system.mem_ctrls0.avgMemAccLat               65965.86                       # Average memory access latency per DRAM burst
system.mem_ctrls0.avgRdBW                      224.20                       # Average DRAM read bandwidth in MiByte/s
system.mem_ctrls0.avgWrBW                      126.74                       # Average achieved write bandwidth in MiByte/s
system.mem_ctrls0.avgRdBWSys                   224.23                       # Average system read bandwidth in MiByte/s
system.mem_ctrls0.avgWrBWSys                   126.74                       # Average system write bandwidth in MiByte/s
system.mem_ctrls0.peakBW                     12800.00                       # Theoretical peak bandwidth in MiByte/s
system.mem_ctrls0.busUtil                        2.74                       # Data bus utilization in percentage
system.mem_ctrls0.busUtilRead                    1.75                       # Data bus utilization in percentage for reads
system.mem_ctrls0.busUtilWrite                   0.99                       # Data bus utilization in percentage for writes
system.mem_ctrls0.avgRdQLen                      1.35                       # Average read queue length when enqueuing
system.mem_ctrls0.avgWrQLen                      2.99                       # Average write queue length when enqueuing
system.mem_ctrls0.readRowHits                  258675                       # Number of row buffer hits during reads
system.mem_ctrls0.writeRowHits                 126890                       # Number of row buffer hits during writes
system.mem_ctrls0.readRowHitRate                78.56                       # Row buffer hit rate for reads
system.mem_ctrls0.writeRowHitRate               68.17                       # Row buffer hit rate for writes
system.mem_ctrls0.avgGap                    182352.15                       # Average gap between requests
system.mem_ctrls0.pageHitRate                   74.81                       # Row buffer hit rate, read and write combined
system.mem_ctrls0.memoryStateTime::IDLE   15259510250                       # Time in different power states
system.mem_ctrls0.memoryStateTime::REF     3138460000                       # Time in different power states
system.mem_ctrls0.memoryStateTime::PRE_PDN            0                       # Time in different power states
system.mem_ctrls0.memoryStateTime::ACT    75593244750                       # Time in different power states
system.mem_ctrls0.memoryStateTime::ACT_PDN            0                       # Time in different power states
system.mem_ctrls0.actEnergy::0              498113280                       # Energy for activate commands per rank (pJ)
system.mem_ctrls0.actEnergy::1              483409080                       # Energy for activate commands per rank (pJ)
system.mem_ctrls0.preEnergy::0              271788000                       # Energy for precharge commands per rank (pJ)
system.mem_ctrls0.preEnergy::1              263764875                       # Energy for precharge commands per rank (pJ)
system.mem_ctrls0.readEnergy::0            1289191800                       # Energy for read commands per rank (pJ)
system.mem_ctrls0.readEnergy::1            1279028400                       # Energy for read commands per rank (pJ)
system.mem_ctrls0.writeEnergy::0            604195200                       # Energy for write commands per rank (pJ)
system.mem_ctrls0.writeEnergy::1            601920720                       # Energy for write commands per rank (pJ)
system.mem_ctrls0.refreshEnergy::0         6138827760                       # Energy for refresh commands per rank (pJ)
system.mem_ctrls0.refreshEnergy::1         6138827760                       # Energy for refresh commands per rank (pJ)
system.mem_ctrls0.actBackEnergy::0        39284426790                       # Energy for active background per rank (pJ)
system.mem_ctrls0.actBackEnergy::1        38564430435                       # Energy for active background per rank (pJ)
system.mem_ctrls0.preBackEnergy::0        21932826750                       # Energy for precharge background per rank (pJ)
system.mem_ctrls0.preBackEnergy::1        22564402500                       # Energy for precharge background per rank (pJ)
system.mem_ctrls0.totalEnergy::0          70019369580                       # Total energy per rank (pJ)
system.mem_ctrls0.totalEnergy::1          69895783770                       # Total energy per rank (pJ)
system.mem_ctrls0.averagePower::0          744.981351                       # Core power per rank (mW)
system.mem_ctrls0.averagePower::1          743.666441                       # Core power per rank (mW)
system.mem_ctrls1.bytes_read::ruby.dir_cntrl1     20641088                       # Number of bytes read from this memory
system.mem_ctrls1.bytes_read::total          20641088                       # Number of bytes read from this memory
system.mem_ctrls1.bytes_written::ruby.dir_cntrl1     11491008                       # Number of bytes written to this memory
system.mem_ctrls1.bytes_written::total       11491008                       # Number of bytes written to this memory
system.mem_ctrls1.num_reads::ruby.dir_cntrl1       322517                       # Number of read requests responded to by this memory
system.mem_ctrls1.num_reads::total             322517                       # Number of read requests responded to by this memory
system.mem_ctrls1.num_writes::ruby.dir_cntrl1       179547                       # Number of write requests responded to by this memory
system.mem_ctrls1.num_writes::total            179547                       # Number of write requests responded to by this memory
system.mem_ctrls1.bw_read::ruby.dir_cntrl1    219599256                       # Total read bandwidth from this memory (bytes/s)
system.mem_ctrls1.bw_read::total            219599256                       # Total read bandwidth from this memory (bytes/s)
system.mem_ctrls1.bw_write::ruby.dir_cntrl1    122252122                       # Write bandwidth from this memory (bytes/s)
system.mem_ctrls1.bw_write::total           122252122                       # Write bandwidth from this memory (bytes/s)
system.mem_ctrls1.bw_total::ruby.dir_cntrl1    341851378                       # Total bandwidth to/from this memory (bytes/s)
system.mem_ctrls1.bw_total::total           341851378                       # Total bandwidth to/from this memory (bytes/s)
system.mem_ctrls1.readReqs                     322517                       # Number of read requests accepted
system.mem_ctrls1.writeReqs                    179547                       # Number of write requests accepted
system.mem_ctrls1.readBursts                   322517                       # Number of DRAM read bursts, including those serviced by the write queue
system.mem_ctrls1.writeBursts                  179547                       # Number of DRAM write bursts, including those merged in the write queue
system.mem_ctrls1.bytesReadDRAM              20639232                       # Total number of bytes read from DRAM
system.mem_ctrls1.bytesReadWrQ                   1856                       # Total number of bytes read from write queue
system.mem_ctrls1.bytesWritten               11490816                       # Total number of bytes written to DRAM
system.mem_ctrls1.bytesReadSys               20641088                       # Total read bytes from the system interface side
system.mem_ctrls1.bytesWrittenSys            11491008                       # Total written bytes from the system interface side
system.mem_ctrls1.servicedByWrQ                    29                       # Number of DRAM read bursts serviced by the write queue
system.mem_ctrls1.mergedWrBursts                    0                       # Number of DRAM write bursts merged with an existing one
system.mem_ctrls1.neitherReadNorWriteReqs            0                       # Number of requests that are neither read nor write
system.mem_ctrls1.perBankRdBursts::0            19858                       # Per bank write bursts
system.mem_ctrls1.perBankRdBursts::1            20532                       # Per bank write bursts
system.mem_ctrls1.perBankRdBursts::2            20044                       # Per bank write bursts
system.mem_ctrls1.perBankRdBursts::3            20395                       # Per bank write bursts
system.mem_ctrls1.perBankRdBursts::4            20082                       # Per bank write bursts
system.mem_ctrls1.perBankRdBursts::5            20534                       # Per bank write bursts
system.mem_ctrls1.perBankRdBursts::6            20183                       # Per bank write bursts
system.mem_ctrls1.perBankRdBursts::7            20365                       # Per bank write bursts
system.mem_ctrls1.perBankRdBursts::8            20209                       # Per bank write bursts
system.mem_ctrls1.perBankRdBursts::9            20399                       # Per bank write bursts
system.mem_ctrls1.perBankRdBursts::10           20134                       # Per bank write bursts
system.mem_ctrls1.perBankRdBursts::11           20427                       # Per bank write bursts
system.mem_ctrls1.perBankRdBursts::12           19793                       # Per bank write bursts
system.mem_ctrls1.perBankRdBursts::13           19694                       # Per bank write bursts
system.mem_ctrls1.perBankRdBursts::14           19919                       # Per bank write bursts
system.mem_ctrls1.perBankRdBursts::15           19920                       # Per bank write bursts
system.mem_ctrls1.perBankWrBursts::0            11111                       # Per bank write bursts
system.mem_ctrls1.perBankWrBursts::1            11246                       # Per bank write bursts
system.mem_ctrls1.perBankWrBursts::2            11262                       # Per bank write bursts
system.mem_ctrls1.perBankWrBursts::3            11243                       # Per bank write bursts
system.mem_ctrls1.perBankWrBursts::4            11213                       # Per bank write bursts
system.mem_ctrls1.perBankWrBursts::5            11512                       # Per bank write bursts
system.mem_ctrls1.perBankWrBursts::6            11137                       # Per bank write bursts
system.mem_ctrls1.perBankWrBursts::7            11255                       # Per bank write bursts
system.mem_ctrls1.perBankWrBursts::8            11489                       # Per bank write bursts
system.mem_ctrls1.perBankWrBursts::9            11309                       # Per bank write bursts
system.mem_ctrls1.perBankWrBursts::10           11129                       # Per bank write bursts
system.mem_ctrls1.perBankWrBursts::11           11293                       # Per bank write bursts
system.mem_ctrls1.perBankWrBursts::12           10950                       # Per bank write bursts
system.mem_ctrls1.perBankWrBursts::13           10911                       # Per bank write bursts
system.mem_ctrls1.perBankWrBursts::14           11292                       # Per bank write bursts
system.mem_ctrls1.perBankWrBursts::15           11192                       # Per bank write bursts
system.mem_ctrls1.numRdRetry                     3726                       # Number of times read queue was full causing retry
system.mem_ctrls1.numWrRetry                     4587                       # Number of times write queue was full causing retry
system.mem_ctrls1.totGap                  93993509000                       # Total gap between requests
system.mem_ctrls1.readPktSize::0                    0                       # Read request sizes (log2)
system.mem_ctrls1.readPktSize::1                    0                       # Read request sizes (log2)
system.mem_ctrls1.readPktSize::2                    0                       # Read request sizes (log2)
system.mem_ctrls1.readPktSize::3                    0                       # Read request sizes (log2)
system.mem_ctrls1.readPktSize::4                    0                       # Read request sizes (log2)
system.mem_ctrls1.readPktSize::5                    0                       # Read request sizes (log2)
system.mem_ctrls1.readPktSize::6               322517                       # Read request sizes (log2)
system.mem_ctrls1.writePktSize::0                   0                       # Write request sizes (log2)
system.mem_ctrls1.writePktSize::1                   0                       # Write request sizes (log2)
system.mem_ctrls1.writePktSize::2                   0                       # Write request sizes (log2)
system.mem_ctrls1.writePktSize::3                   0                       # Write request sizes (log2)
system.mem_ctrls1.writePktSize::4                   0                       # Write request sizes (log2)
system.mem_ctrls1.writePktSize::5                   0                       # Write request sizes (log2)
system.mem_ctrls1.writePktSize::6              179547                       # Write request sizes (log2)
system.mem_ctrls1.rdQLenPdf::0                 142956                       # What read queue length does an incoming req see
system.mem_ctrls1.rdQLenPdf::1                  27395                       # What read queue length does an incoming req see
system.mem_ctrls1.rdQLenPdf::2                  22947                       # What read queue length does an incoming req see
system.mem_ctrls1.rdQLenPdf::3                  18287                       # What read queue length does an incoming req see
system.mem_ctrls1.rdQLenPdf::4                  14668                       # What read queue length does an incoming req see
system.mem_ctrls1.rdQLenPdf::5                  12453                       # What read queue length does an incoming req see
system.mem_ctrls1.rdQLenPdf::6                  10547                       # What read queue length does an incoming req see
system.mem_ctrls1.rdQLenPdf::7                   9012                       # What read queue length does an incoming req see
system.mem_ctrls1.rdQLenPdf::8                   7724                       # What read queue length does an incoming req see
system.mem_ctrls1.rdQLenPdf::9                   6759                       # What read queue length does an incoming req see
system.mem_ctrls1.rdQLenPdf::10                  5748                       # What read queue length does an incoming req see
system.mem_ctrls1.rdQLenPdf::11                  4958                       # What read queue length does an incoming req see
system.mem_ctrls1.rdQLenPdf::12                  4367                       # What read queue length does an incoming req see
system.mem_ctrls1.rdQLenPdf::13                  3833                       # What read queue length does an incoming req see
system.mem_ctrls1.rdQLenPdf::14                  3399                       # What read queue length does an incoming req see
system.mem_ctrls1.rdQLenPdf::15                  3106                       # What read queue length does an incoming req see
system.mem_ctrls1.rdQLenPdf::16                  2690                       # What read queue length does an incoming req see
system.mem_ctrls1.rdQLenPdf::17                  2367                       # What read queue length does an incoming req see
system.mem_ctrls1.rdQLenPdf::18                  2066                       # What read queue length does an incoming req see
system.mem_ctrls1.rdQLenPdf::19                  1853                       # What read queue length does an incoming req see
system.mem_ctrls1.rdQLenPdf::20                  1663                       # What read queue length does an incoming req see
system.mem_ctrls1.rdQLenPdf::21                  1483                       # What read queue length does an incoming req see
system.mem_ctrls1.rdQLenPdf::22                  1350                       # What read queue length does an incoming req see
system.mem_ctrls1.rdQLenPdf::23                  1201                       # What read queue length does an incoming req see
system.mem_ctrls1.rdQLenPdf::24                  1050                       # What read queue length does an incoming req see
system.mem_ctrls1.rdQLenPdf::25                   900                       # What read queue length does an incoming req see
system.mem_ctrls1.rdQLenPdf::26                   845                       # What read queue length does an incoming req see
system.mem_ctrls1.rdQLenPdf::27                   731                       # What read queue length does an incoming req see
system.mem_ctrls1.rdQLenPdf::28                   674                       # What read queue length does an incoming req see
system.mem_ctrls1.rdQLenPdf::29                   618                       # What read queue length does an incoming req see
system.mem_ctrls1.rdQLenPdf::30                   575                       # What read queue length does an incoming req see
system.mem_ctrls1.rdQLenPdf::31                  4263                       # What read queue length does an incoming req see
system.mem_ctrls1.wrQLenPdf::0                  30000                       # What write queue length does an incoming req see
system.mem_ctrls1.wrQLenPdf::1                  32303                       # What write queue length does an incoming req see
system.mem_ctrls1.wrQLenPdf::2                  33141                       # What write queue length does an incoming req see
system.mem_ctrls1.wrQLenPdf::3                  33555                       # What write queue length does an incoming req see
system.mem_ctrls1.wrQLenPdf::4                  33575                       # What write queue length does an incoming req see
system.mem_ctrls1.wrQLenPdf::5                   5149                       # What write queue length does an incoming req see
system.mem_ctrls1.wrQLenPdf::6                   4239                       # What write queue length does an incoming req see
system.mem_ctrls1.wrQLenPdf::7                   7585                       # What write queue length does an incoming req see
system.mem_ctrls1.bytesPerActivate::samples       122259                       # Bytes accessed per row activation
system.mem_ctrls1.bytesPerActivate::mean   262.794232                       # Bytes accessed per row activation
system.mem_ctrls1.bytesPerActivate::gmean   193.870721                       # Bytes accessed per row activation
system.mem_ctrls1.bytesPerActivate::stdev   217.928520                       # Bytes accessed per row activation
system.mem_ctrls1.bytesPerActivate::0-127        29785     24.36%     24.36% # Bytes accessed per row activation
system.mem_ctrls1.bytesPerActivate::128-255        31437     25.71%     50.08% # Bytes accessed per row activation
system.mem_ctrls1.bytesPerActivate::256-383        40574     33.19%     83.26% # Bytes accessed per row activation
system.mem_ctrls1.bytesPerActivate::384-511         6581      5.38%     88.65% # Bytes accessed per row activation
system.mem_ctrls1.bytesPerActivate::512-639         4636      3.79%     92.44% # Bytes accessed per row activation
system.mem_ctrls1.bytesPerActivate::640-767         2402      1.96%     94.40% # Bytes accessed per row activation
system.mem_ctrls1.bytesPerActivate::768-895         1745      1.43%     95.83% # Bytes accessed per row activation
system.mem_ctrls1.bytesPerActivate::896-1023         1242      1.02%     96.85% # Bytes accessed per row activation
system.mem_ctrls1.bytesPerActivate::1024-1151         3857      3.15%    100.00% # Bytes accessed per row activation
system.mem_ctrls1.bytesPerActivate::total       122259                       # Bytes accessed per row activation
system.mem_ctrls1.rdPerTurnAround::samples        30545                       # Reads before turning the bus around for writes
system.mem_ctrls1.rdPerTurnAround::mean     10.556720                       # Reads before turning the bus around for writes
system.mem_ctrls1.rdPerTurnAround::stdev    22.294918                       # Reads before turning the bus around for writes
system.mem_ctrls1.rdPerTurnAround::0-127        30518     99.91%     99.91% # Reads before turning the bus around for writes
system.mem_ctrls1.rdPerTurnAround::128-255           25      0.08%     99.99% # Reads before turning the bus around for writes
system.mem_ctrls1.rdPerTurnAround::1152-1279            1      0.00%    100.00% # Reads before turning the bus around for writes
system.mem_ctrls1.rdPerTurnAround::2816-2943            1      0.00%    100.00% # Reads before turning the bus around for writes
system.mem_ctrls1.rdPerTurnAround::total        30545                       # Reads before turning the bus around for writes
system.mem_ctrls1.wrPerTurnAround::samples        30545                       # Writes before turning the bus around for reads
system.mem_ctrls1.wrPerTurnAround::mean      5.878016                       # Writes before turning the bus around for reads
system.mem_ctrls1.wrPerTurnAround::gmean     5.609308                       # Writes before turning the bus around for reads
system.mem_ctrls1.wrPerTurnAround::stdev     2.291470                       # Writes before turning the bus around for reads
system.mem_ctrls1.wrPerTurnAround::4-7          26844     87.88%     87.88% # Writes before turning the bus around for reads
system.mem_ctrls1.wrPerTurnAround::8-11          2219      7.26%     95.15% # Writes before turning the bus around for reads
system.mem_ctrls1.wrPerTurnAround::12-15          786      2.57%     97.72% # Writes before turning the bus around for reads
system.mem_ctrls1.wrPerTurnAround::16-19          696      2.28%    100.00% # Writes before turning the bus around for reads
system.mem_ctrls1.wrPerTurnAround::total        30545                       # Writes before turning the bus around for reads
system.mem_ctrls1.totQLat                 15246909384                       # Total ticks spent queuing
system.mem_ctrls1.totMemAccLat            21293559384                       # Total ticks spent from burst creation until serviced by the DRAM
system.mem_ctrls1.totBusLat                1612440000                       # Total ticks spent in databus transfers
system.mem_ctrls1.avgQLat                    47279.00                       # Average queueing delay per DRAM burst
system.mem_ctrls1.avgBusLat                   5000.00                       # Average bus latency per DRAM burst
system.mem_ctrls1.avgMemAccLat               66029.00                       # Average memory access latency per DRAM burst
system.mem_ctrls1.avgRdBW                      219.58                       # Average DRAM read bandwidth in MiByte/s
system.mem_ctrls1.avgWrBW                      122.25                       # Average achieved write bandwidth in MiByte/s
system.mem_ctrls1.avgRdBWSys                   219.60                       # Average system read bandwidth in MiByte/s
system.mem_ctrls1.avgWrBWSys                   122.25                       # Average system write bandwidth in MiByte/s
system.mem_ctrls1.peakBW                     12800.00                       # Theoretical peak bandwidth in MiByte/s
system.mem_ctrls1.busUtil                        2.67                       # Data bus utilization in percentage
system.mem_ctrls1.busUtilRead                    1.72                       # Data bus utilization in percentage for reads
system.mem_ctrls1.busUtilWrite                   0.96                       # Data bus utilization in percentage for writes
system.mem_ctrls1.avgRdQLen                      1.34                       # Average read queue length when enqueuing
system.mem_ctrls1.avgWrQLen                      2.99                       # Average write queue length when enqueuing
system.mem_ctrls1.readRowHits                  255050                       # Number of row buffer hits during reads
system.mem_ctrls1.writeRowHits                 124713                       # Number of row buffer hits during writes
system.mem_ctrls1.readRowHitRate                79.09                       # Row buffer hit rate for reads
system.mem_ctrls1.writeRowHitRate               69.46                       # Row buffer hit rate for writes
system.mem_ctrls1.avgGap                    187214.20                       # Average gap between requests
system.mem_ctrls1.pageHitRate                   75.64                       # Row buffer hit rate, read and write combined
system.mem_ctrls1.memoryStateTime::IDLE   15458456250                       # Time in different power states
system.mem_ctrls1.memoryStateTime::REF     3138460000                       # Time in different power states
system.mem_ctrls1.memoryStateTime::PRE_PDN            0                       # Time in different power states
system.mem_ctrls1.memoryStateTime::ACT    75391181250                       # Time in different power states
system.mem_ctrls1.memoryStateTime::ACT_PDN            0                       # Time in different power states
system.mem_ctrls1.actEnergy::0              469029960                       # Energy for activate commands per rank (pJ)
system.mem_ctrls1.actEnergy::1              455225400                       # Energy for activate commands per rank (pJ)
system.mem_ctrls1.preEnergy::0              255919125                       # Energy for precharge commands per rank (pJ)
system.mem_ctrls1.preEnergy::1              248386875                       # Energy for precharge commands per rank (pJ)
system.mem_ctrls1.readEnergy::0            1263428400                       # Energy for read commands per rank (pJ)
system.mem_ctrls1.readEnergy::1            1251790800                       # Energy for read commands per rank (pJ)
system.mem_ctrls1.writeEnergy::0            583063920                       # Energy for write commands per rank (pJ)
system.mem_ctrls1.writeEnergy::1            580381200                       # Energy for write commands per rank (pJ)
system.mem_ctrls1.refreshEnergy::0         6138827760                       # Energy for refresh commands per rank (pJ)
system.mem_ctrls1.refreshEnergy::1         6138827760                       # Energy for refresh commands per rank (pJ)
system.mem_ctrls1.actBackEnergy::0        38780884800                       # Energy for active background per rank (pJ)
system.mem_ctrls1.actBackEnergy::1        37817805105                       # Energy for active background per rank (pJ)
system.mem_ctrls1.preBackEnergy::0        22374530250                       # Energy for precharge background per rank (pJ)
system.mem_ctrls1.preBackEnergy::1        23219337000                       # Energy for precharge background per rank (pJ)
system.mem_ctrls1.totalEnergy::0          69865684215                       # Total energy per rank (pJ)
system.mem_ctrls1.totalEnergy::1          69711754140                       # Total energy per rank (pJ)
system.mem_ctrls1.averagePower::0          743.346193                       # Core power per rank (mW)
system.mem_ctrls1.averagePower::1          741.708431                       # Core power per rank (mW)
system.mem_ctrls2.bytes_read::ruby.dir_cntrl2     20659072                       # Number of bytes read from this memory
system.mem_ctrls2.bytes_read::total          20659072                       # Number of bytes read from this memory
system.mem_ctrls2.bytes_written::ruby.dir_cntrl2     11492480                       # Number of bytes written to this memory
system.mem_ctrls2.bytes_written::total       11492480                       # Number of bytes written to this memory
system.mem_ctrls2.num_reads::ruby.dir_cntrl2       322798                       # Number of read requests responded to by this memory
system.mem_ctrls2.num_reads::total             322798                       # Number of read requests responded to by this memory
system.mem_ctrls2.num_writes::ruby.dir_cntrl2       179570                       # Number of write requests responded to by this memory
system.mem_ctrls2.num_writes::total            179570                       # Number of write requests responded to by this memory
system.mem_ctrls2.bw_read::ruby.dir_cntrl2    219790587                       # Total read bandwidth from this memory (bytes/s)
system.mem_ctrls2.bw_read::total            219790587                       # Total read bandwidth from this memory (bytes/s)
system.mem_ctrls2.bw_write::ruby.dir_cntrl2    122267782                       # Write bandwidth from this memory (bytes/s)
system.mem_ctrls2.bw_write::total           122267782                       # Write bandwidth from this memory (bytes/s)
system.mem_ctrls2.bw_total::ruby.dir_cntrl2    342058369                       # Total bandwidth to/from this memory (bytes/s)
system.mem_ctrls2.bw_total::total           342058369                       # Total bandwidth to/from this memory (bytes/s)
system.mem_ctrls2.readReqs                     322798                       # Number of read requests accepted
system.mem_ctrls2.writeReqs                    179570                       # Number of write requests accepted
system.mem_ctrls2.readBursts                   322798                       # Number of DRAM read bursts, including those serviced by the write queue
system.mem_ctrls2.writeBursts                  179570                       # Number of DRAM write bursts, including those merged in the write queue
system.mem_ctrls2.bytesReadDRAM              20658112                       # Total number of bytes read from DRAM
system.mem_ctrls2.bytesReadWrQ                    960                       # Total number of bytes read from write queue
system.mem_ctrls2.bytesWritten               11492480                       # Total number of bytes written to DRAM
system.mem_ctrls2.bytesReadSys               20659072                       # Total read bytes from the system interface side
system.mem_ctrls2.bytesWrittenSys            11492480                       # Total written bytes from the system interface side
system.mem_ctrls2.servicedByWrQ                    15                       # Number of DRAM read bursts serviced by the write queue
system.mem_ctrls2.mergedWrBursts                    0                       # Number of DRAM write bursts merged with an existing one
system.mem_ctrls2.neitherReadNorWriteReqs            0                       # Number of requests that are neither read nor write
system.mem_ctrls2.perBankRdBursts::0            19893                       # Per bank write bursts
system.mem_ctrls2.perBankRdBursts::1            20543                       # Per bank write bursts
system.mem_ctrls2.perBankRdBursts::2            20077                       # Per bank write bursts
system.mem_ctrls2.perBankRdBursts::3            20496                       # Per bank write bursts
system.mem_ctrls2.perBankRdBursts::4            20077                       # Per bank write bursts
system.mem_ctrls2.perBankRdBursts::5            20525                       # Per bank write bursts
system.mem_ctrls2.perBankRdBursts::6            20177                       # Per bank write bursts
system.mem_ctrls2.perBankRdBursts::7            20323                       # Per bank write bursts
system.mem_ctrls2.perBankRdBursts::8            20207                       # Per bank write bursts
system.mem_ctrls2.perBankRdBursts::9            20435                       # Per bank write bursts
system.mem_ctrls2.perBankRdBursts::10           20161                       # Per bank write bursts
system.mem_ctrls2.perBankRdBursts::11           20498                       # Per bank write bursts
system.mem_ctrls2.perBankRdBursts::12           19830                       # Per bank write bursts
system.mem_ctrls2.perBankRdBursts::13           19681                       # Per bank write bursts
system.mem_ctrls2.perBankRdBursts::14           19893                       # Per bank write bursts
system.mem_ctrls2.perBankRdBursts::15           19967                       # Per bank write bursts
system.mem_ctrls2.perBankWrBursts::0            11111                       # Per bank write bursts
system.mem_ctrls2.perBankWrBursts::1            11248                       # Per bank write bursts
system.mem_ctrls2.perBankWrBursts::2            11259                       # Per bank write bursts
system.mem_ctrls2.perBankWrBursts::3            11266                       # Per bank write bursts
system.mem_ctrls2.perBankWrBursts::4            11205                       # Per bank write bursts
system.mem_ctrls2.perBankWrBursts::5            11496                       # Per bank write bursts
system.mem_ctrls2.perBankWrBursts::6            11145                       # Per bank write bursts
system.mem_ctrls2.perBankWrBursts::7            11257                       # Per bank write bursts
system.mem_ctrls2.perBankWrBursts::8            11464                       # Per bank write bursts
system.mem_ctrls2.perBankWrBursts::9            11321                       # Per bank write bursts
system.mem_ctrls2.perBankWrBursts::10           11114                       # Per bank write bursts
system.mem_ctrls2.perBankWrBursts::11           11312                       # Per bank write bursts
system.mem_ctrls2.perBankWrBursts::12           10959                       # Per bank write bursts
system.mem_ctrls2.perBankWrBursts::13           10916                       # Per bank write bursts
system.mem_ctrls2.perBankWrBursts::14           11293                       # Per bank write bursts
system.mem_ctrls2.perBankWrBursts::15           11204                       # Per bank write bursts
system.mem_ctrls2.numRdRetry                     4717                       # Number of times read queue was full causing retry
system.mem_ctrls2.numWrRetry                     4952                       # Number of times write queue was full causing retry
system.mem_ctrls2.totGap                  93994202500                       # Total gap between requests
system.mem_ctrls2.readPktSize::0                    0                       # Read request sizes (log2)
system.mem_ctrls2.readPktSize::1                    0                       # Read request sizes (log2)
system.mem_ctrls2.readPktSize::2                    0                       # Read request sizes (log2)
system.mem_ctrls2.readPktSize::3                    0                       # Read request sizes (log2)
system.mem_ctrls2.readPktSize::4                    0                       # Read request sizes (log2)
system.mem_ctrls2.readPktSize::5                    0                       # Read request sizes (log2)
system.mem_ctrls2.readPktSize::6               322798                       # Read request sizes (log2)
system.mem_ctrls2.writePktSize::0                   0                       # Write request sizes (log2)
system.mem_ctrls2.writePktSize::1                   0                       # Write request sizes (log2)
system.mem_ctrls2.writePktSize::2                   0                       # Write request sizes (log2)
system.mem_ctrls2.writePktSize::3                   0                       # Write request sizes (log2)
system.mem_ctrls2.writePktSize::4                   0                       # Write request sizes (log2)
system.mem_ctrls2.writePktSize::5                   0                       # Write request sizes (log2)
system.mem_ctrls2.writePktSize::6              179570                       # Write request sizes (log2)
system.mem_ctrls2.rdQLenPdf::0                 143542                       # What read queue length does an incoming req see
system.mem_ctrls2.rdQLenPdf::1                  27544                       # What read queue length does an incoming req see
system.mem_ctrls2.rdQLenPdf::2                  23246                       # What read queue length does an incoming req see
system.mem_ctrls2.rdQLenPdf::3                  19083                       # What read queue length does an incoming req see
system.mem_ctrls2.rdQLenPdf::4                  15440                       # What read queue length does an incoming req see
system.mem_ctrls2.rdQLenPdf::5                  12778                       # What read queue length does an incoming req see
system.mem_ctrls2.rdQLenPdf::6                  10540                       # What read queue length does an incoming req see
system.mem_ctrls2.rdQLenPdf::7                   8796                       # What read queue length does an incoming req see
system.mem_ctrls2.rdQLenPdf::8                   7387                       # What read queue length does an incoming req see
system.mem_ctrls2.rdQLenPdf::9                   6352                       # What read queue length does an incoming req see
system.mem_ctrls2.rdQLenPdf::10                  5463                       # What read queue length does an incoming req see
system.mem_ctrls2.rdQLenPdf::11                  4763                       # What read queue length does an incoming req see
system.mem_ctrls2.rdQLenPdf::12                  4218                       # What read queue length does an incoming req see
system.mem_ctrls2.rdQLenPdf::13                  3767                       # What read queue length does an incoming req see
system.mem_ctrls2.rdQLenPdf::14                  3199                       # What read queue length does an incoming req see
system.mem_ctrls2.rdQLenPdf::15                  2787                       # What read queue length does an incoming req see
system.mem_ctrls2.rdQLenPdf::16                  2486                       # What read queue length does an incoming req see
system.mem_ctrls2.rdQLenPdf::17                  2143                       # What read queue length does an incoming req see
system.mem_ctrls2.rdQLenPdf::18                  1921                       # What read queue length does an incoming req see
system.mem_ctrls2.rdQLenPdf::19                  1746                       # What read queue length does an incoming req see
system.mem_ctrls2.rdQLenPdf::20                  1492                       # What read queue length does an incoming req see
system.mem_ctrls2.rdQLenPdf::21                  1313                       # What read queue length does an incoming req see
system.mem_ctrls2.rdQLenPdf::22                  1154                       # What read queue length does an incoming req see
system.mem_ctrls2.rdQLenPdf::23                  1023                       # What read queue length does an incoming req see
system.mem_ctrls2.rdQLenPdf::24                   907                       # What read queue length does an incoming req see
system.mem_ctrls2.rdQLenPdf::25                   831                       # What read queue length does an incoming req see
system.mem_ctrls2.rdQLenPdf::26                   792                       # What read queue length does an incoming req see
system.mem_ctrls2.rdQLenPdf::27                   732                       # What read queue length does an incoming req see
system.mem_ctrls2.rdQLenPdf::28                   702                       # What read queue length does an incoming req see
system.mem_ctrls2.rdQLenPdf::29                   668                       # What read queue length does an incoming req see
system.mem_ctrls2.rdQLenPdf::30                   603                       # What read queue length does an incoming req see
system.mem_ctrls2.rdQLenPdf::31                  5365                       # What read queue length does an incoming req see
system.mem_ctrls2.wrQLenPdf::0                  30015                       # What write queue length does an incoming req see
system.mem_ctrls2.wrQLenPdf::1                  32315                       # What write queue length does an incoming req see
system.mem_ctrls2.wrQLenPdf::2                  33156                       # What write queue length does an incoming req see
system.mem_ctrls2.wrQLenPdf::3                  33455                       # What write queue length does an incoming req see
system.mem_ctrls2.wrQLenPdf::4                  33503                       # What write queue length does an incoming req see
system.mem_ctrls2.wrQLenPdf::5                   5015                       # What write queue length does an incoming req see
system.mem_ctrls2.wrQLenPdf::6                   4129                       # What write queue length does an incoming req see
system.mem_ctrls2.wrQLenPdf::7                   7982                       # What write queue length does an incoming req see
system.mem_ctrls2.bytesPerActivate::samples       120598                       # Bytes accessed per row activation
system.mem_ctrls2.bytesPerActivate::mean   266.585117                       # Bytes accessed per row activation
system.mem_ctrls2.bytesPerActivate::gmean   196.444928                       # Bytes accessed per row activation
system.mem_ctrls2.bytesPerActivate::stdev   221.349490                       # Bytes accessed per row activation
system.mem_ctrls2.bytesPerActivate::0-127        28800     23.88%     23.88% # Bytes accessed per row activation
system.mem_ctrls2.bytesPerActivate::128-255        30824     25.56%     49.44% # Bytes accessed per row activation
system.mem_ctrls2.bytesPerActivate::256-383        40458     33.55%     82.99% # Bytes accessed per row activation
system.mem_ctrls2.bytesPerActivate::384-511         6294      5.22%     88.21% # Bytes accessed per row activation
system.mem_ctrls2.bytesPerActivate::512-639         4588      3.80%     92.01% # Bytes accessed per row activation
system.mem_ctrls2.bytesPerActivate::640-767         2467      2.05%     94.06% # Bytes accessed per row activation
system.mem_ctrls2.bytesPerActivate::768-895         1842      1.53%     95.58% # Bytes accessed per row activation
system.mem_ctrls2.bytesPerActivate::896-1023         1317      1.09%     96.68% # Bytes accessed per row activation
system.mem_ctrls2.bytesPerActivate::1024-1151         4008      3.32%    100.00% # Bytes accessed per row activation
system.mem_ctrls2.bytesPerActivate::total       120598                       # Bytes accessed per row activation
system.mem_ctrls2.rdPerTurnAround::samples        30581                       # Reads before turning the bus around for writes
system.mem_ctrls2.rdPerTurnAround::mean     10.553775                       # Reads before turning the bus around for writes
system.mem_ctrls2.rdPerTurnAround::stdev    22.376314                       # Reads before turning the bus around for writes
system.mem_ctrls2.rdPerTurnAround::0-127        30548     99.89%     99.89% # Reads before turning the bus around for writes
system.mem_ctrls2.rdPerTurnAround::128-255           31      0.10%     99.99% # Reads before turning the bus around for writes
system.mem_ctrls2.rdPerTurnAround::1152-1279            1      0.00%    100.00% # Reads before turning the bus around for writes
system.mem_ctrls2.rdPerTurnAround::2816-2943            1      0.00%    100.00% # Reads before turning the bus around for writes
system.mem_ctrls2.rdPerTurnAround::total        30581                       # Reads before turning the bus around for writes
system.mem_ctrls2.wrPerTurnAround::samples        30581                       # Writes before turning the bus around for reads
system.mem_ctrls2.wrPerTurnAround::mean      5.871947                       # Writes before turning the bus around for reads
system.mem_ctrls2.wrPerTurnAround::gmean     5.604767                       # Writes before turning the bus around for reads
system.mem_ctrls2.wrPerTurnAround::stdev     2.286370                       # Writes before turning the bus around for reads
system.mem_ctrls2.wrPerTurnAround::4-7          26930     88.06%     88.06% # Writes before turning the bus around for reads
system.mem_ctrls2.wrPerTurnAround::8-11          2199      7.19%     95.25% # Writes before turning the bus around for reads
system.mem_ctrls2.wrPerTurnAround::12-15          739      2.42%     97.67% # Writes before turning the bus around for reads
system.mem_ctrls2.wrPerTurnAround::16-19          713      2.33%    100.00% # Writes before turning the bus around for reads
system.mem_ctrls2.wrPerTurnAround::total        30581                       # Writes before turning the bus around for reads
system.mem_ctrls2.totQLat                 15052317730                       # Total ticks spent queuing
system.mem_ctrls2.totMemAccLat            21104498980                       # Total ticks spent from burst creation until serviced by the DRAM
system.mem_ctrls2.totBusLat                1613915000                       # Total ticks spent in databus transfers
system.mem_ctrls2.avgQLat                    46632.93                       # Average queueing delay per DRAM burst
system.mem_ctrls2.avgBusLat                   5000.00                       # Average bus latency per DRAM burst
system.mem_ctrls2.avgMemAccLat               65382.93                       # Average memory access latency per DRAM burst
system.mem_ctrls2.avgRdBW                      219.78                       # Average DRAM read bandwidth in MiByte/s
system.mem_ctrls2.avgWrBW                      122.27                       # Average achieved write bandwidth in MiByte/s
system.mem_ctrls2.avgRdBWSys                   219.79                       # Average system read bandwidth in MiByte/s
system.mem_ctrls2.avgWrBWSys                   122.27                       # Average system write bandwidth in MiByte/s
system.mem_ctrls2.peakBW                     12800.00                       # Theoretical peak bandwidth in MiByte/s
system.mem_ctrls2.busUtil                        2.67                       # Data bus utilization in percentage
system.mem_ctrls2.busUtilRead                    1.72                       # Data bus utilization in percentage for reads
system.mem_ctrls2.busUtilWrite                   0.96                       # Data bus utilization in percentage for writes
system.mem_ctrls2.avgRdQLen                      1.33                       # Average read queue length when enqueuing
system.mem_ctrls2.avgWrQLen                      3.00                       # Average write queue length when enqueuing
system.mem_ctrls2.readRowHits                  255810                       # Number of row buffer hits during reads
system.mem_ctrls2.writeRowHits                 125935                       # Number of row buffer hits during writes
system.mem_ctrls2.readRowHitRate                79.25                       # Row buffer hit rate for reads
system.mem_ctrls2.writeRowHitRate               70.13                       # Row buffer hit rate for writes
system.mem_ctrls2.avgGap                    187102.29                       # Average gap between requests
system.mem_ctrls2.pageHitRate                   75.99                       # Row buffer hit rate, read and write combined
system.mem_ctrls2.memoryStateTime::IDLE   15502913500                       # Time in different power states
system.mem_ctrls2.memoryStateTime::REF     3138460000                       # Time in different power states
system.mem_ctrls2.memoryStateTime::PRE_PDN            0                       # Time in different power states
system.mem_ctrls2.memoryStateTime::ACT    75346724000                       # Time in different power states
system.mem_ctrls2.memoryStateTime::ACT_PDN            0                       # Time in different power states
system.mem_ctrls2.actEnergy::0              461976480                       # Energy for activate commands per rank (pJ)
system.mem_ctrls2.actEnergy::1              449706600                       # Energy for activate commands per rank (pJ)
system.mem_ctrls2.preEnergy::0              252070500                       # Energy for precharge commands per rank (pJ)
system.mem_ctrls2.preEnergy::1              245375625                       # Energy for precharge commands per rank (pJ)
system.mem_ctrls2.readEnergy::0            1264372200                       # Energy for read commands per rank (pJ)
system.mem_ctrls2.readEnergy::1            1253163600                       # Energy for read commands per rank (pJ)
system.mem_ctrls2.writeEnergy::0            583115760                       # Energy for write commands per rank (pJ)
system.mem_ctrls2.writeEnergy::1            580497840                       # Energy for write commands per rank (pJ)
system.mem_ctrls2.refreshEnergy::0         6138827760                       # Energy for refresh commands per rank (pJ)
system.mem_ctrls2.refreshEnergy::1         6138827760                       # Energy for refresh commands per rank (pJ)
system.mem_ctrls2.actBackEnergy::0        38669890410                       # Energy for active background per rank (pJ)
system.mem_ctrls2.actBackEnergy::1        37751368185                       # Energy for active background per rank (pJ)
system.mem_ctrls2.preBackEnergy::0        22471893750                       # Energy for precharge background per rank (pJ)
system.mem_ctrls2.preBackEnergy::1        23277615000                       # Energy for precharge background per rank (pJ)
system.mem_ctrls2.totalEnergy::0          69842146860                       # Total energy per rank (pJ)
system.mem_ctrls2.totalEnergy::1          69696554610                       # Total energy per rank (pJ)
system.mem_ctrls2.averagePower::0          743.095764                       # Core power per rank (mW)
system.mem_ctrls2.averagePower::1          741.546713                       # Core power per rank (mW)
system.mem_ctrls3.bytes_read::ruby.dir_cntrl3     20622720                       # Number of bytes read from this memory
system.mem_ctrls3.bytes_read::total          20622720                       # Number of bytes read from this memory
system.mem_ctrls3.bytes_written::ruby.dir_cntrl3     11490112                       # Number of bytes written to this memory
system.mem_ctrls3.bytes_written::total       11490112                       # Number of bytes written to this memory
system.mem_ctrls3.num_reads::ruby.dir_cntrl3       322230                       # Number of read requests responded to by this memory
system.mem_ctrls3.num_reads::total             322230                       # Number of read requests responded to by this memory
system.mem_ctrls3.num_writes::ruby.dir_cntrl3       179533                       # Number of write requests responded to by this memory
system.mem_ctrls3.num_writes::total            179533                       # Number of write requests responded to by this memory
system.mem_ctrls3.bw_read::ruby.dir_cntrl3    219403840                       # Total read bandwidth from this memory (bytes/s)
system.mem_ctrls3.bw_read::total            219403840                       # Total read bandwidth from this memory (bytes/s)
system.mem_ctrls3.bw_write::ruby.dir_cntrl3    122242589                       # Write bandwidth from this memory (bytes/s)
system.mem_ctrls3.bw_write::total           122242589                       # Write bandwidth from this memory (bytes/s)
system.mem_ctrls3.bw_total::ruby.dir_cntrl3    341646429                       # Total bandwidth to/from this memory (bytes/s)
system.mem_ctrls3.bw_total::total           341646429                       # Total bandwidth to/from this memory (bytes/s)
system.mem_ctrls3.readReqs                     322231                       # Number of read requests accepted
system.mem_ctrls3.writeReqs                    179533                       # Number of write requests accepted
system.mem_ctrls3.readBursts                   322231                       # Number of DRAM read bursts, including those serviced by the write queue
system.mem_ctrls3.writeBursts                  179533                       # Number of DRAM write bursts, including those merged in the write queue
system.mem_ctrls3.bytesReadDRAM              20622080                       # Total number of bytes read from DRAM
system.mem_ctrls3.bytesReadWrQ                    704                       # Total number of bytes read from write queue
system.mem_ctrls3.bytesWritten               11490112                       # Total number of bytes written to DRAM
system.mem_ctrls3.bytesReadSys               20622784                       # Total read bytes from the system interface side
system.mem_ctrls3.bytesWrittenSys            11490112                       # Total written bytes from the system interface side
system.mem_ctrls3.servicedByWrQ                    11                       # Number of DRAM read bursts serviced by the write queue
system.mem_ctrls3.mergedWrBursts                    0                       # Number of DRAM write bursts merged with an existing one
system.mem_ctrls3.neitherReadNorWriteReqs            0                       # Number of requests that are neither read nor write
system.mem_ctrls3.perBankRdBursts::0            19848                       # Per bank write bursts
system.mem_ctrls3.perBankRdBursts::1            20507                       # Per bank write bursts
system.mem_ctrls3.perBankRdBursts::2            20012                       # Per bank write bursts
system.mem_ctrls3.perBankRdBursts::3            20416                       # Per bank write bursts
system.mem_ctrls3.perBankRdBursts::4            20030                       # Per bank write bursts
system.mem_ctrls3.perBankRdBursts::5            20484                       # Per bank write bursts
system.mem_ctrls3.perBankRdBursts::6            20183                       # Per bank write bursts
system.mem_ctrls3.perBankRdBursts::7            20312                       # Per bank write bursts
system.mem_ctrls3.perBankRdBursts::8            20188                       # Per bank write bursts
system.mem_ctrls3.perBankRdBursts::9            20368                       # Per bank write bursts
system.mem_ctrls3.perBankRdBursts::10           20172                       # Per bank write bursts
system.mem_ctrls3.perBankRdBursts::11           20406                       # Per bank write bursts
system.mem_ctrls3.perBankRdBursts::12           19764                       # Per bank write bursts
system.mem_ctrls3.perBankRdBursts::13           19665                       # Per bank write bursts
system.mem_ctrls3.perBankRdBursts::14           19928                       # Per bank write bursts
system.mem_ctrls3.perBankRdBursts::15           19937                       # Per bank write bursts
system.mem_ctrls3.perBankWrBursts::0            11101                       # Per bank write bursts
system.mem_ctrls3.perBankWrBursts::1            11247                       # Per bank write bursts
system.mem_ctrls3.perBankWrBursts::2            11258                       # Per bank write bursts
system.mem_ctrls3.perBankWrBursts::3            11251                       # Per bank write bursts
system.mem_ctrls3.perBankWrBursts::4            11208                       # Per bank write bursts
system.mem_ctrls3.perBankWrBursts::5            11504                       # Per bank write bursts
system.mem_ctrls3.perBankWrBursts::6            11140                       # Per bank write bursts
system.mem_ctrls3.perBankWrBursts::7            11248                       # Per bank write bursts
system.mem_ctrls3.perBankWrBursts::8            11464                       # Per bank write bursts
system.mem_ctrls3.perBankWrBursts::9            11327                       # Per bank write bursts
system.mem_ctrls3.perBankWrBursts::10           11115                       # Per bank write bursts
system.mem_ctrls3.perBankWrBursts::11           11314                       # Per bank write bursts
system.mem_ctrls3.perBankWrBursts::12           10962                       # Per bank write bursts
system.mem_ctrls3.perBankWrBursts::13           10906                       # Per bank write bursts
system.mem_ctrls3.perBankWrBursts::14           11293                       # Per bank write bursts
system.mem_ctrls3.perBankWrBursts::15           11195                       # Per bank write bursts
system.mem_ctrls3.numRdRetry                     3586                       # Number of times read queue was full causing retry
system.mem_ctrls3.numWrRetry                     4506                       # Number of times write queue was full causing retry
system.mem_ctrls3.totGap                  93993602500                       # Total gap between requests
system.mem_ctrls3.readPktSize::0                    0                       # Read request sizes (log2)
system.mem_ctrls3.readPktSize::1                    0                       # Read request sizes (log2)
system.mem_ctrls3.readPktSize::2                    0                       # Read request sizes (log2)
system.mem_ctrls3.readPktSize::3                    0                       # Read request sizes (log2)
system.mem_ctrls3.readPktSize::4                    0                       # Read request sizes (log2)
system.mem_ctrls3.readPktSize::5                    0                       # Read request sizes (log2)
system.mem_ctrls3.readPktSize::6               322231                       # Read request sizes (log2)
system.mem_ctrls3.writePktSize::0                   0                       # Write request sizes (log2)
system.mem_ctrls3.writePktSize::1                   0                       # Write request sizes (log2)
system.mem_ctrls3.writePktSize::2                   0                       # Write request sizes (log2)
system.mem_ctrls3.writePktSize::3                   0                       # Write request sizes (log2)
system.mem_ctrls3.writePktSize::4                   0                       # Write request sizes (log2)
system.mem_ctrls3.writePktSize::5                   0                       # Write request sizes (log2)
system.mem_ctrls3.writePktSize::6              179533                       # Write request sizes (log2)
system.mem_ctrls3.rdQLenPdf::0                 143139                       # What read queue length does an incoming req see
system.mem_ctrls3.rdQLenPdf::1                  27443                       # What read queue length does an incoming req see
system.mem_ctrls3.rdQLenPdf::2                  23005                       # What read queue length does an incoming req see
system.mem_ctrls3.rdQLenPdf::3                  18584                       # What read queue length does an incoming req see
system.mem_ctrls3.rdQLenPdf::4                  15007                       # What read queue length does an incoming req see
system.mem_ctrls3.rdQLenPdf::5                  12609                       # What read queue length does an incoming req see
system.mem_ctrls3.rdQLenPdf::6                  10626                       # What read queue length does an incoming req see
system.mem_ctrls3.rdQLenPdf::7                   8876                       # What read queue length does an incoming req see
system.mem_ctrls3.rdQLenPdf::8                   7623                       # What read queue length does an incoming req see
system.mem_ctrls3.rdQLenPdf::9                   6650                       # What read queue length does an incoming req see
system.mem_ctrls3.rdQLenPdf::10                  5774                       # What read queue length does an incoming req see
system.mem_ctrls3.rdQLenPdf::11                  5033                       # What read queue length does an incoming req see
system.mem_ctrls3.rdQLenPdf::12                  4409                       # What read queue length does an incoming req see
system.mem_ctrls3.rdQLenPdf::13                  3853                       # What read queue length does an incoming req see
system.mem_ctrls3.rdQLenPdf::14                  3462                       # What read queue length does an incoming req see
system.mem_ctrls3.rdQLenPdf::15                  3022                       # What read queue length does an incoming req see
system.mem_ctrls3.rdQLenPdf::16                  2646                       # What read queue length does an incoming req see
system.mem_ctrls3.rdQLenPdf::17                  2263                       # What read queue length does an incoming req see
system.mem_ctrls3.rdQLenPdf::18                  1930                       # What read queue length does an incoming req see
system.mem_ctrls3.rdQLenPdf::19                  1740                       # What read queue length does an incoming req see
system.mem_ctrls3.rdQLenPdf::20                  1609                       # What read queue length does an incoming req see
system.mem_ctrls3.rdQLenPdf::21                  1418                       # What read queue length does an incoming req see
system.mem_ctrls3.rdQLenPdf::22                  1267                       # What read queue length does an incoming req see
system.mem_ctrls3.rdQLenPdf::23                  1151                       # What read queue length does an incoming req see
system.mem_ctrls3.rdQLenPdf::24                   999                       # What read queue length does an incoming req see
[...]
system.ruby.L2Cache_Controller.MT_MB.L1_PUTX::total          173                      
system.ruby.L2Cache_Controller.MT_MB.L1_PUTX_old |           0      0.00%      0.00% |           0      0.00%      0.00% |           0      0.00%      0.00% |           0      0.00%      0.00% |           0      0.00%      0.00% |           0      0.00%      0.00% |           1      8.33%      8.33% |           1      8.33%     16.67% |           0      0.00%     16.67% |           0      0.00%     16.67% |           0      0.00%     16.67% |           0      0.00%     16.67% |           0      0.00%     16.67% |           0      0.00%     16.67% |           1      8.33%     25.00% |           1      8.33%     33.33% |           0      0.00%     33.33% |           1      8.33%     41.67% |           1      8.33%     50.00% |           0      0.00%     50.00% |           0      0.00%     50.00% |           0      0.00%     50.00% |           0      0.00%     50.00% |           4     33.33%     83.33% |           0      0.00%     83.33% |           0      0.00%     83.33% |           0      0.00%     83.33% |           1      8.33%     91.67% |           0      0.00%     91.67% |           0      0.00%     91.67% |           0      0.00%     91.67% |           1      8.33%    100.00%
system.ruby.L2Cache_Controller.MT_MB.L1_PUTX_old::total           12                      
system.ruby.L2Cache_Controller.MT_MB.Exclusive_Unblock |      152810      5.71%      5.71% |       82837      3.10%      8.81% |       81444      3.04%     11.85% |       82399      3.08%     14.93% |       81517      3.05%     17.98% |       81132      3.03%     21.01% |       81144      3.03%     24.05% |       80703      3.02%     27.06% |       80753      3.02%     30.08% |       81846      3.06%     33.14% |       82806      3.10%     36.24% |       82165      3.07%     39.31% |       81623      3.05%     42.36% |       80351      3.00%     45.36% |       79525      2.97%     48.33% |       79901      2.99%     51.32% |       80701      3.02%     54.34% |       80417      3.01%     57.34% |       80708      3.02%     60.36% |       80986      3.03%     63.39% |       80697      3.02%     66.40% |       83208      3.11%     69.51% |       80980      3.03%     72.54% |       80535      3.01%     75.55% |       80518      3.01%     78.56% |       81205      3.04%     81.60% |       80884      3.02%     84.62% |       80695      3.02%     87.64% |       81078      3.03%     90.67% |       80848      3.02%     93.69% |       83543      3.12%     96.81% |       85272      3.19%    100.00%
system.ruby.L2Cache_Controller.MT_MB.Exclusive_Unblock::total      2675231                      
system.ruby.L2Cache_Controller.MT_IIB.L1_GETS |           0      0.00%      0.00% |           0      0.00%      0.00% |           0      0.00%      0.00% |           0      0.00%      0.00% |           0      0.00%      0.00% |           0      0.00%      0.00% |           0      0.00%      0.00% |           0      0.00%      0.00% |           0      0.00%      0.00% |           0      0.00%      0.00% |           0      0.00%      0.00% |           0      0.00%      0.00% |           0      0.00%      0.00% |           0      0.00%      0.00% |           0      0.00%      0.00% |           0      0.00%      0.00% |           0      0.00%      0.00% |           0      0.00%      0.00% |           0      0.00%      0.00% |           0      0.00%      0.00% |           0      0.00%      0.00% |           0      0.00%      0.00% |           0      0.00%      0.00% |           0      0.00%      0.00% |           0      0.00%      0.00% |           0      0.00%      0.00% |           1     33.33%     33.33% |           1     33.33%     66.67% |           1     33.33%    100.00% |           0      0.00%    100.00% |           0      0.00%    100.00% |           0      0.00%    100.00%
system.ruby.L2Cache_Controller.MT_IIB.L1_GETS::total            3                      
system.ruby.L2Cache_Controller.MT_IIB.L1_PUTX |           4      1.83%      1.83% |           7      3.20%      5.02% |           3      1.37%      6.39% |           9      4.11%     10.50% |           6      2.74%     13.24% |           3      1.37%     14.61% |           1      0.46%     15.07% |           5      2.28%     17.35% |           4      1.83%     19.18% |           7      3.20%     22.37% |           8      3.65%     26.03% |           4      1.83%     27.85% |           3      1.37%     29.22% |           9      4.11%     33.33% |           6      2.74%     36.07% |           8      3.65%     39.73% |           5      2.28%     42.01% |           8      3.65%     45.66% |          18      8.22%     53.88% |           7      3.20%     57.08% |           6      2.74%     59.82% |          10      4.57%     64.38% |           7      3.20%     67.58% |          10      4.57%     72.15% |           9      4.11%     76.26% |           8      3.65%     79.91% |          10      4.57%     84.47% |          11      5.02%     89.50% |           9      4.11%     93.61% |           5      2.28%     95.89% |           5      2.28%     98.17% |           4      1.83%    100.00%
system.ruby.L2Cache_Controller.MT_IIB.L1_PUTX::total          219                      
system.ruby.L2Cache_Controller.MT_IIB.WB_Data |           0      0.00%      0.00% |           0      0.00%      0.00% |           0      0.00%      0.00% |           0      0.00%      0.00% |           0      0.00%      0.00% |           0      0.00%      0.00% |           0      0.00%      0.00% |           0      0.00%      0.00% |           0      0.00%      0.00% |           0      0.00%      0.00% |           0      0.00%      0.00% |           0      0.00%      0.00% |           0      0.00%      0.00% |           0      0.00%      0.00% |           0      0.00%      0.00% |           0      0.00%      0.00% |           0      0.00%      0.00% |           0      0.00%      0.00% |           0      0.00%      0.00% |           0      0.00%      0.00% |           0      0.00%      0.00% |           0      0.00%      0.00% |           0      0.00%      0.00% |           0      0.00%      0.00% |           0      0.00%      0.00% |           2    100.00%    100.00% |           0      0.00%    100.00% |           0      0.00%    100.00% |           0      0.00%    100.00% |           0      0.00%    100.00% |           0      0.00%    100.00% |           0      0.00%    100.00%
system.ruby.L2Cache_Controller.MT_IIB.WB_Data::total            2                      
system.ruby.L2Cache_Controller.MT_IIB.WB_Data_clean |        1164      2.98%      2.98% |        1202      3.08%      6.06% |        1086      2.78%      8.85% |        1154      2.96%     11.80% |        1078      2.76%     14.56% |        1151      2.95%     17.51% |        1185      3.04%     20.55% |        1235      3.16%     23.71% |        1138      2.92%     26.63% |        1222      3.13%     29.76% |        1222      3.13%     32.89% |        1245      3.19%     36.08% |        1206      3.09%     39.17% |        1278      3.27%     42.45% |        1292      3.31%     45.76% |        1288      3.30%     49.06% |        1317      3.37%     52.43% |        1300      3.33%     55.76% |        1281      3.28%     59.05% |        1310      3.36%     62.40% |        1242      3.18%     65.59% |        1264      3.24%     68.82% |        1280      3.28%     72.10% |        1294      3.32%     75.42% |        1230      3.15%     78.57% |        1228      3.15%     81.72% |        1204      3.09%     84.80% |        1244      3.19%     87.99% |        1172      3.00%     90.99% |        1167      2.99%     93.98% |        1171      3.00%     96.98% |        1177      3.02%    100.00%
system.ruby.L2Cache_Controller.MT_IIB.WB_Data_clean::total        39027                      
system.ruby.L2Cache_Controller.MT_IIB.Unblock |          12      0.66%      0.66% |          38      2.09%      2.75% |          93      5.12%      7.87% |          78      4.29%     12.16% |          95      5.23%     17.38% |          94      5.17%     22.55% |           9      0.50%     23.05% |          22      1.21%     24.26% |          72      3.96%     28.22% |          57      3.14%     31.35% |          54      2.97%     34.32% |          52      2.86%     37.18% |          83      4.57%     41.75% |          64      3.52%     45.27% |          37      2.04%     47.30% |          43      2.37%     49.67% |          11      0.61%     50.28% |          35      1.93%     52.20% |          79      4.35%     56.55% |          47      2.59%     59.13% |          96      5.28%     64.41% |          63      3.47%     67.88% |          53      2.92%     70.79% |          24      1.32%     72.11% |          58      3.19%     75.30% |          64      3.52%     78.82% |          59      3.25%     82.07% |          42      2.31%     84.38% |          76      4.18%     88.56% |          88      4.84%     93.40% |          47      2.59%     95.98% |          73      4.02%    100.00%
system.ruby.L2Cache_Controller.MT_IIB.Unblock::total         1818                      
system.ruby.L2Cache_Controller.MT_IB.WB_Data_clean |          12      0.66%      0.66% |          38      2.09%      2.75% |          93      5.12%      7.87% |          78      4.29%     12.16% |          95      5.23%     17.38% |          94      5.17%     22.55% |           9      0.50%     23.05% |          22      1.21%     24.26% |          72      3.96%     28.22% |          57      3.14%     31.35% |          54      2.97%     34.32% |          52      2.86%     37.18% |          83      4.57%     41.75% |          64      3.52%     45.27% |          37      2.04%     47.30% |          43      2.37%     49.67% |          11      0.61%     50.28% |          35      1.93%     52.20% |          79      4.35%     56.55% |          47      2.59%     59.13% |          96      5.28%     64.41% |          63      3.47%     67.88% |          53      2.92%     70.79% |          24      1.32%     72.11% |          58      3.19%     75.30% |          64      3.52%     78.82% |          59      3.25%     82.07% |          42      2.31%     84.38% |          76      4.18%     88.56% |          88      4.84%     93.40% |          47      2.59%     95.98% |          73      4.02%    100.00%
system.ruby.L2Cache_Controller.MT_IB.WB_Data_clean::total         1818                      
system.ruby.L2Cache_Controller.MT_SB.L1_GETS |           0      0.00%      0.00% |           0      0.00%      0.00% |           0      0.00%      0.00% |           0      0.00%      0.00% |           0      0.00%      0.00% |           0      0.00%      0.00% |           0      0.00%      0.00% |           0      0.00%      0.00% |           0      0.00%      0.00% |           0      0.00%      0.00% |           0      0.00%      0.00% |           0      0.00%      0.00% |           0      0.00%      0.00% |           0      0.00%      0.00% |           0      0.00%      0.00% |           0      0.00%      0.00% |           0      0.00%      0.00% |           1     50.00%     50.00% |           0      0.00%     50.00% |           0      0.00%     50.00% |           0      0.00%     50.00% |           0      0.00%     50.00% |           0      0.00%     50.00% |           0      0.00%     50.00% |           0      0.00%     50.00% |           0      0.00%     50.00% |           0      0.00%     50.00% |           0      0.00%     50.00% |           0      0.00%     50.00% |           1     50.00%    100.00% |           0      0.00%    100.00% |           0      0.00%    100.00%
system.ruby.L2Cache_Controller.MT_SB.L1_GETS::total            2                      
system.ruby.L2Cache_Controller.MT_SB.L1_PUTX |           1      7.69%      7.69% |           0      0.00%      7.69% |           0      0.00%      7.69% |           0      0.00%      7.69% |           0      0.00%      7.69% |           0      0.00%      7.69% |           1      7.69%     15.38% |           0      0.00%     15.38% |           0      0.00%     15.38% |           0      0.00%     15.38% |           1      7.69%     23.08% |           0      0.00%     23.08% |           0      0.00%     23.08% |           0      0.00%     23.08% |           0      0.00%     23.08% |           2     15.38%     38.46% |           0      0.00%     38.46% |           0      0.00%     38.46% |           0      0.00%     38.46% |           2     15.38%     53.85% |           0      0.00%     53.85% |           1      7.69%     61.54% |           0      0.00%     61.54% |           0      0.00%     61.54% |           1      7.69%     69.23% |           1      7.69%     76.92% |           1      7.69%     84.62% |           0      0.00%     84.62% |           1      7.69%     92.31% |           0      0.00%     92.31% |           1      7.69%    100.00% |           0      0.00%    100.00%
system.ruby.L2Cache_Controller.MT_SB.L1_PUTX::total           13                      
system.ruby.L2Cache_Controller.MT_SB.Unblock |        1164      2.98%      2.98% |        1202      3.08%      6.06% |        1086      2.78%      8.84% |        1154      2.96%     11.80% |        1078      2.76%     14.56% |        1151      2.95%     17.51% |        1185      3.04%     20.55% |        1235      3.16%     23.71% |        1138      2.92%     26.63% |        1222      3.13%     29.76% |        1222      3.13%     32.89% |        1245      3.19%     36.08% |        1206      3.09%     39.17% |        1278      3.27%     42.45% |        1292      3.31%     45.76% |        1288      3.30%     49.06% |        1317      3.37%     52.43% |        1300      3.33%     55.76% |        1281      3.28%     59.04% |        1310      3.36%     62.40% |        1242      3.18%     65.58% |        1264      3.24%     68.82% |        1280      3.28%     72.10% |        1294      3.32%     75.42% |        1230      3.15%     78.57% |        1230      3.15%     81.72% |        1204      3.08%     84.80% |        1244      3.19%     87.99% |        1172      3.00%     90.99% |        1167      2.99%     93.98% |        1171      3.00%     96.98% |        1177      3.02%    100.00%
system.ruby.L2Cache_Controller.MT_SB.Unblock::total        39029                      
system.ruby.SimicsNetworkPortInterface_Controller.MessageSend |      438592     21.30%     21.30% |     1029597     50.00%     71.30% |      146080      7.09%     78.39% |      149329      7.25%     85.65% |      146706      7.12%     92.77% |      148890      7.23%    100.00% |           0      0.00%    100.00% |           0      0.00%    100.00% |           0      0.00%    100.00% |           0      0.00%    100.00% |           0      0.00%    100.00% |           0      0.00%    100.00% |           0      0.00%    100.00% |           0      0.00%    100.00% |           0      0.00%    100.00% |           0      0.00%    100.00% |           0      0.00%    100.00% |           0      0.00%    100.00% |           0      0.00%    100.00% |           0      0.00%    100.00% |           0      0.00%    100.00% |           0      0.00%    100.00% |           0      0.00%    100.00% |           0      0.00%    100.00% |           0      0.00%    100.00% |           0      0.00%    100.00% |           0      0.00%    100.00% |           0      0.00%    100.00% |           0      0.00%    100.00% |           0      0.00%    100.00% |           0      0.00%    100.00% |           0      0.00%    100.00%
system.ruby.SimicsNetworkPortInterface_Controller.MessageSend::total      2059194                      
system.ruby.SimicsNetworkPortInterface_Controller.MessageRecv |      438592     21.30%     21.30% |     1029597     50.00%     71.30% |      146080      7.09%     78.39% |      149329      7.25%     85.65% |      146706      7.12%     92.77% |      148890      7.23%    100.00% |           0      0.00%    100.00% |           0      0.00%    100.00% |           0      0.00%    100.00% |           0      0.00%    100.00% |           0      0.00%    100.00% |           0      0.00%    100.00% |           0      0.00%    100.00% |           0      0.00%    100.00% |           0      0.00%    100.00% |           0      0.00%    100.00% |           0      0.00%    100.00% |           0      0.00%    100.00% |           0      0.00%    100.00% |           0      0.00%    100.00% |           0      0.00%    100.00% |           0      0.00%    100.00% |           0      0.00%    100.00% |           0      0.00%    100.00% |           0      0.00%    100.00% |           0      0.00%    100.00% |           0      0.00%    100.00% |           0      0.00%    100.00% |           0      0.00%    100.00% |           0      0.00%    100.00% |           0      0.00%    100.00% |           0      0.00%    100.00%
system.ruby.SimicsNetworkPortInterface_Controller.MessageRecv::total      2059194                      
system.ruby.SimicsNetworkPortInterface_Controller.A.MessageSend |      438592     21.30%     21.30% |     1029597     50.00%     71.30% |      146080      7.09%     78.39% |      149329      7.25%     85.65% |      146706      7.12%     92.77% |      148890      7.23%    100.00% |           0      0.00%    100.00% |           0      0.00%    100.00% |           0      0.00%    100.00% |           0      0.00%    100.00% |           0      0.00%    100.00% |           0      0.00%    100.00% |           0      0.00%    100.00% |           0      0.00%    100.00% |           0      0.00%    100.00% |           0      0.00%    100.00% |           0      0.00%    100.00% |           0      0.00%    100.00% |           0      0.00%    100.00% |           0      0.00%    100.00% |           0      0.00%    100.00% |           0      0.00%    100.00% |           0      0.00%    100.00% |           0      0.00%    100.00% |           0      0.00%    100.00% |           0      0.00%    100.00% |           0      0.00%    100.00% |           0      0.00%    100.00% |           0      0.00%    100.00% |           0      0.00%    100.00% |           0      0.00%    100.00% |           0      0.00%    100.00%
system.ruby.SimicsNetworkPortInterface_Controller.A.MessageSend::total      2059194                      
system.ruby.SimicsNetworkPortInterface_Controller.A.MessageRecv |      438592     21.30%     21.30% |     1029597     50.00%     71.30% |      146080      7.09%     78.39% |      149329      7.25%     85.65% |      146706      7.12%     92.77% |      148890      7.23%    100.00% |           0      0.00%    100.00% |           0      0.00%    100.00% |           0      0.00%    100.00% |           0      0.00%    100.00% |           0      0.00%    100.00% |           0      0.00%    100.00% |           0      0.00%    100.00% |           0      0.00%    100.00% |           0      0.00%    100.00% |           0      0.00%    100.00% |           0      0.00%    100.00% |           0      0.00%    100.00% |           0      0.00%    100.00% |           0      0.00%    100.00% |           0      0.00%    100.00% |           0      0.00%    100.00% |           0      0.00%    100.00% |           0      0.00%    100.00% |           0      0.00%    100.00% |           0      0.00%    100.00% |           0      0.00%    100.00% |           0      0.00%    100.00% |           0      0.00%    100.00% |           0      0.00%    100.00% |           0      0.00%    100.00% |           0      0.00%    100.00%
system.ruby.SimicsNetworkPortInterface_Controller.A.MessageRecv::total      2059194                      
system.switch_cpus.kern.inst.arm                    0                       # number of arm instructions executed
system.switch_cpus.kern.inst.quiesce                0                       # number of quiesce instructions executed

---------- End Simulation Statistics   ----------
