
---------- Begin Simulation Statistics ----------
sim_seconds                                  0.153832                       # Number of seconds simulated
sim_ticks                                153831927500                       # Number of ticks simulated
final_tick                               5330000006000                       # Number of ticks from beginning of simulation (restored from checkpoints and never reset)
sim_freq                                 1000000000000                       # Frequency of simulated ticks
host_inst_rate                                  81884                       # Simulator instruction rate (inst/s)
host_op_rate                                   155909                       # Simulator op (including micro ops) rate (op/s)
host_tick_rate                              195059575                       # Simulator tick rate (ticks/s)
host_mem_usage                                4035044                       # Number of bytes of host memory used
host_seconds                                   788.64                       # Real time elapsed on the host
sim_insts                                    64576939                       # Number of instructions simulated
sim_ops                                     122956202                       # Number of ops (including micro ops) simulated
system.voltage_domain.voltage                       1                       # Voltage in Volts
system.clk_domain.clock                           500                       # Clock period in ticks
system.mem_ctrls0.bytes_read::ruby.dir_cntrl0     25268800                       # Number of bytes read from this memory
system.mem_ctrls0.bytes_read::total          25268800                       # Number of bytes read from this memory
system.mem_ctrls0.bytes_written::ruby.dir_cntrl0     21421056                       # Number of bytes written to this memory
system.mem_ctrls0.bytes_written::total       21421056                       # Number of bytes written to this memory
system.mem_ctrls0.num_reads::ruby.dir_cntrl0       394825                       # Number of read requests responded to by this memory
system.mem_ctrls0.num_reads::total             394825                       # Number of read requests responded to by this memory
system.mem_ctrls0.num_writes::ruby.dir_cntrl0       334704                       # Number of write requests responded to by this memory
system.mem_ctrls0.num_writes::total            334704                       # Number of write requests responded to by this memory
system.mem_ctrls0.bw_read::ruby.dir_cntrl0    164262390                       # Total read bandwidth from this memory (bytes/s)
system.mem_ctrls0.bw_read::total            164262390                       # Total read bandwidth from this memory (bytes/s)
system.mem_ctrls0.bw_write::ruby.dir_cntrl0    139249741                       # Write bandwidth from this memory (bytes/s)
system.mem_ctrls0.bw_write::total           139249741                       # Write bandwidth from this memory (bytes/s)
system.mem_ctrls0.bw_total::ruby.dir_cntrl0    303512130                       # Total bandwidth to/from this memory (bytes/s)
system.mem_ctrls0.bw_total::total           303512130                       # Total bandwidth to/from this memory (bytes/s)
system.mem_ctrls0.readReqs                     394826                       # Number of read requests accepted
system.mem_ctrls0.writeReqs                    334704                       # Number of write requests accepted
system.mem_ctrls0.readBursts                   394826                       # Number of DRAM read bursts, including those serviced by the write queue
system.mem_ctrls0.writeBursts                  334704                       # Number of DRAM write bursts, including those merged in the write queue
system.mem_ctrls0.bytesReadDRAM              25267904                       # Total number of bytes read from DRAM
system.mem_ctrls0.bytesReadWrQ                    960                       # Total number of bytes read from write queue
system.mem_ctrls0.bytesWritten               21420992                       # Total number of bytes written to DRAM
system.mem_ctrls0.bytesReadSys               25268864                       # Total read bytes from the system interface side
system.mem_ctrls0.bytesWrittenSys            21421056                       # Total written bytes from the system interface side
system.mem_ctrls0.servicedByWrQ                    15                       # Number of DRAM read bursts serviced by the write queue
system.mem_ctrls0.mergedWrBursts                    0                       # Number of DRAM write bursts merged with an existing one
system.mem_ctrls0.neitherReadNorWriteReqs            0                       # Number of requests that are neither read nor write
system.mem_ctrls0.perBankRdBursts::0            24363                       # Per bank write bursts
system.mem_ctrls0.perBankRdBursts::1            25074                       # Per bank write bursts
system.mem_ctrls0.perBankRdBursts::2            24637                       # Per bank write bursts
system.mem_ctrls0.perBankRdBursts::3            24951                       # Per bank write bursts
system.mem_ctrls0.perBankRdBursts::4            24586                       # Per bank write bursts
system.mem_ctrls0.perBankRdBursts::5            24928                       # Per bank write bursts
system.mem_ctrls0.perBankRdBursts::6            24974                       # Per bank write bursts
system.mem_ctrls0.perBankRdBursts::7            24750                       # Per bank write bursts
system.mem_ctrls0.perBankRdBursts::8            24653                       # Per bank write bursts
system.mem_ctrls0.perBankRdBursts::9            24785                       # Per bank write bursts
system.mem_ctrls0.perBankRdBursts::10           24578                       # Per bank write bursts
system.mem_ctrls0.perBankRdBursts::11           25075                       # Per bank write bursts
system.mem_ctrls0.perBankRdBursts::12           24325                       # Per bank write bursts
system.mem_ctrls0.perBankRdBursts::13           24247                       # Per bank write bursts
system.mem_ctrls0.perBankRdBursts::14           24411                       # Per bank write bursts
system.mem_ctrls0.perBankRdBursts::15           24474                       # Per bank write bursts
system.mem_ctrls0.perBankWrBursts::0            20941                       # Per bank write bursts
system.mem_ctrls0.perBankWrBursts::1            20835                       # Per bank write bursts
system.mem_ctrls0.perBankWrBursts::2            20834                       # Per bank write bursts
system.mem_ctrls0.perBankWrBursts::3            21131                       # Per bank write bursts
system.mem_ctrls0.perBankWrBursts::4            20768                       # Per bank write bursts
system.mem_ctrls0.perBankWrBursts::5            21065                       # Per bank write bursts
system.mem_ctrls0.perBankWrBursts::6            21044                       # Per bank write bursts
system.mem_ctrls0.perBankWrBursts::7            21022                       # Per bank write bursts
system.mem_ctrls0.perBankWrBursts::8            21118                       # Per bank write bursts
system.mem_ctrls0.perBankWrBursts::9            20923                       # Per bank write bursts
system.mem_ctrls0.perBankWrBursts::10           20842                       # Per bank write bursts
system.mem_ctrls0.perBankWrBursts::11           20880                       # Per bank write bursts
system.mem_ctrls0.perBankWrBursts::12           20626                       # Per bank write bursts
system.mem_ctrls0.perBankWrBursts::13           20904                       # Per bank write bursts
system.mem_ctrls0.perBankWrBursts::14           20954                       # Per bank write bursts
system.mem_ctrls0.perBankWrBursts::15           20816                       # Per bank write bursts
system.mem_ctrls0.numRdRetry                   131789                       # Number of times read queue was full causing retry
system.mem_ctrls0.numWrRetry                    16171                       # Number of times write queue was full causing retry
system.mem_ctrls0.totGap                 153831663500                       # Total gap between requests
system.mem_ctrls0.readPktSize::0                    0                       # Read request sizes (log2)
system.mem_ctrls0.readPktSize::1                    0                       # Read request sizes (log2)
system.mem_ctrls0.readPktSize::2                    0                       # Read request sizes (log2)
system.mem_ctrls0.readPktSize::3                    0                       # Read request sizes (log2)
system.mem_ctrls0.readPktSize::4                    0                       # Read request sizes (log2)
system.mem_ctrls0.readPktSize::5                    0                       # Read request sizes (log2)
system.mem_ctrls0.readPktSize::6               394826                       # Read request sizes (log2)
system.mem_ctrls0.writePktSize::0                   0                       # Write request sizes (log2)
system.mem_ctrls0.writePktSize::1                   0                       # Write request sizes (log2)
system.mem_ctrls0.writePktSize::2                   0                       # Write request sizes (log2)
system.mem_ctrls0.writePktSize::3                   0                       # Write request sizes (log2)
system.mem_ctrls0.writePktSize::4                   0                       # Write request sizes (log2)
system.mem_ctrls0.writePktSize::5                   0                       # Write request sizes (log2)
system.mem_ctrls0.writePktSize::6              334704                       # Write request sizes (log2)
system.mem_ctrls0.rdQLenPdf::0                 204763                       # What read queue length does an incoming req see
system.mem_ctrls0.rdQLenPdf::1                   5822                       # What read queue length does an incoming req see
system.mem_ctrls0.rdQLenPdf::2                   3159                       # What read queue length does an incoming req see
system.mem_ctrls0.rdQLenPdf::3                    672                       # What read queue length does an incoming req see
system.mem_ctrls0.rdQLenPdf::4                    814                       # What read queue length does an incoming req see
system.mem_ctrls0.rdQLenPdf::5                    905                       # What read queue length does an incoming req see
system.mem_ctrls0.rdQLenPdf::6                    996                       # What read queue length does an incoming req see
system.mem_ctrls0.rdQLenPdf::7                   1056                       # What read queue length does an incoming req see
system.mem_ctrls0.rdQLenPdf::8                   1079                       # What read queue length does an incoming req see
system.mem_ctrls0.rdQLenPdf::9                   1179                       # What read queue length does an incoming req see
system.mem_ctrls0.rdQLenPdf::10                  1181                       # What read queue length does an incoming req see
system.mem_ctrls0.rdQLenPdf::11                  1258                       # What read queue length does an incoming req see
system.mem_ctrls0.rdQLenPdf::12                  1273                       # What read queue length does an incoming req see
system.mem_ctrls0.rdQLenPdf::13                  1301                       # What read queue length does an incoming req see
system.mem_ctrls0.rdQLenPdf::14                  1316                       # What read queue length does an incoming req see
system.mem_ctrls0.rdQLenPdf::15                  1285                       # What read queue length does an incoming req see
system.mem_ctrls0.rdQLenPdf::16                  1300                       # What read queue length does an incoming req see
system.mem_ctrls0.rdQLenPdf::17                  1399                       # What read queue length does an incoming req see
system.mem_ctrls0.rdQLenPdf::18                  1483                       # What read queue length does an incoming req see
system.mem_ctrls0.rdQLenPdf::19                  1530                       # What read queue length does an incoming req see
system.mem_ctrls0.rdQLenPdf::20                  1571                       # What read queue length does an incoming req see
system.mem_ctrls0.rdQLenPdf::21                  1659                       # What read queue length does an incoming req see
system.mem_ctrls0.rdQLenPdf::22                  1718                       # What read queue length does an incoming req see
system.mem_ctrls0.rdQLenPdf::23                  1763                       # What read queue length does an incoming req see
system.mem_ctrls0.rdQLenPdf::24                  1834                       # What read queue length does an incoming req see
system.mem_ctrls0.rdQLenPdf::25                  1899                       # What read queue length does an incoming req see
system.mem_ctrls0.rdQLenPdf::26                  2030                       # What read queue length does an incoming req see
system.mem_ctrls0.rdQLenPdf::27                  2199                       # What read queue length does an incoming req see
system.mem_ctrls0.rdQLenPdf::28                  2408                       # What read queue length does an incoming req see
system.mem_ctrls0.rdQLenPdf::29                  2697                       # What read queue length does an incoming req see
system.mem_ctrls0.rdQLenPdf::30                  3495                       # What read queue length does an incoming req see
system.mem_ctrls0.rdQLenPdf::31                137767                       # What read queue length does an incoming req see
system.mem_ctrls0.wrQLenPdf::0                  48481                       # What write queue length does an incoming req see
system.mem_ctrls0.wrQLenPdf::1                  51096                       # What write queue length does an incoming req see
system.mem_ctrls0.wrQLenPdf::2                  52635                       # What write queue length does an incoming req see
system.mem_ctrls0.wrQLenPdf::3                  53056                       # What write queue length does an incoming req see
system.mem_ctrls0.wrQLenPdf::4                  54071                       # What write queue length does an incoming req see
system.mem_ctrls0.wrQLenPdf::5                  16629                       # What write queue length does an incoming req see
system.mem_ctrls0.wrQLenPdf::6                  21817                       # What write queue length does an incoming req see
system.mem_ctrls0.wrQLenPdf::7                  36919                       # What write queue length does an incoming req see
system.mem_ctrls0.bytesPerActivate::samples       215778                       # Bytes accessed per row activation
system.mem_ctrls0.bytesPerActivate::mean   216.369936                       # Bytes accessed per row activation
system.mem_ctrls0.bytesPerActivate::gmean   164.383630                       # Bytes accessed per row activation
system.mem_ctrls0.bytesPerActivate::stdev   166.121248                       # Bytes accessed per row activation
system.mem_ctrls0.bytesPerActivate::0-127        68687     31.83%     31.83% # Bytes accessed per row activation
system.mem_ctrls0.bytesPerActivate::128-255        54207     25.12%     56.95% # Bytes accessed per row activation
system.mem_ctrls0.bytesPerActivate::256-383        69955     32.42%     89.37% # Bytes accessed per row activation
system.mem_ctrls0.bytesPerActivate::384-511        10294      4.77%     94.14% # Bytes accessed per row activation
system.mem_ctrls0.bytesPerActivate::512-639         5880      2.73%     96.87% # Bytes accessed per row activation
system.mem_ctrls0.bytesPerActivate::640-767         2815      1.30%     98.17% # Bytes accessed per row activation
system.mem_ctrls0.bytesPerActivate::768-895         1442      0.67%     98.84% # Bytes accessed per row activation
system.mem_ctrls0.bytesPerActivate::896-1023          954      0.44%     99.28% # Bytes accessed per row activation
system.mem_ctrls0.bytesPerActivate::1024-1151         1544      0.72%    100.00% # Bytes accessed per row activation
system.mem_ctrls0.bytesPerActivate::total       215778                       # Bytes accessed per row activation
system.mem_ctrls0.rdPerTurnAround::samples        49994                       # Reads before turning the bus around for writes
system.mem_ctrls0.rdPerTurnAround::mean      7.897088                       # Reads before turning the bus around for writes
system.mem_ctrls0.rdPerTurnAround::stdev    18.969547                       # Reads before turning the bus around for writes
system.mem_ctrls0.rdPerTurnAround::0-127        49986     99.98%     99.98% # Reads before turning the bus around for writes
system.mem_ctrls0.rdPerTurnAround::128-255            7      0.01%    100.00% # Reads before turning the bus around for writes
system.mem_ctrls0.rdPerTurnAround::3968-4095            1      0.00%    100.00% # Reads before turning the bus around for writes
system.mem_ctrls0.rdPerTurnAround::total        49994                       # Reads before turning the bus around for writes
system.mem_ctrls0.wrPerTurnAround::samples        49994                       # Writes before turning the bus around for reads
system.mem_ctrls0.wrPerTurnAround::mean      6.694863                       # Writes before turning the bus around for reads
system.mem_ctrls0.wrPerTurnAround::gmean     6.085874                       # Writes before turning the bus around for reads
system.mem_ctrls0.wrPerTurnAround::stdev     3.522468                       # Writes before turning the bus around for reads
system.mem_ctrls0.wrPerTurnAround::4-7          40278     80.57%     80.57% # Writes before turning the bus around for reads
system.mem_ctrls0.wrPerTurnAround::8-11          1968      3.94%     84.50% # Writes before turning the bus around for reads
system.mem_ctrls0.wrPerTurnAround::12-15         5011     10.02%     94.53% # Writes before turning the bus around for reads
system.mem_ctrls0.wrPerTurnAround::16-19         2737      5.47%    100.00% # Writes before turning the bus around for reads
system.mem_ctrls0.wrPerTurnAround::total        49994                       # Writes before turning the bus around for reads
system.mem_ctrls0.totQLat                 65876047486                       # Total ticks spent queuing
system.mem_ctrls0.totMemAccLat            73278753736                       # Total ticks spent from burst creation until serviced by the DRAM
system.mem_ctrls0.totBusLat                1974055000                       # Total ticks spent in databus transfers
system.mem_ctrls0.avgQLat                   166854.64                       # Average queueing delay per DRAM burst
system.mem_ctrls0.avgBusLat                   5000.00                       # Average bus latency per DRAM burst
system.mem_ctrls0.avgMemAccLat              185604.64                       # Average memory access latency per DRAM burst
system.mem_ctrls0.avgRdBW                      164.26                       # Average DRAM read bandwidth in MiByte/s
system.mem_ctrls0.avgWrBW                      139.25                       # Average achieved write bandwidth in MiByte/s
system.mem_ctrls0.avgRdBWSys                   164.26                       # Average system read bandwidth in MiByte/s
system.mem_ctrls0.avgWrBWSys                   139.25                       # Average system write bandwidth in MiByte/s
system.mem_ctrls0.peakBW                     12800.00                       # Theoretical peak bandwidth in MiByte/s
system.mem_ctrls0.busUtil                        2.37                       # Data bus utilization in percentage
system.mem_ctrls0.busUtilRead                    1.28                       # Data bus utilization in percentage for reads
system.mem_ctrls0.busUtilWrite                   1.09                       # Data bus utilization in percentage for writes
system.mem_ctrls0.avgRdQLen                      1.44                       # Average read queue length when enqueuing
system.mem_ctrls0.avgWrQLen                      2.99                       # Average write queue length when enqueuing
system.mem_ctrls0.readRowHits                  294862                       # Number of row buffer hits during reads
system.mem_ctrls0.writeRowHits                 218862                       # Number of row buffer hits during writes
system.mem_ctrls0.readRowHitRate                74.68                       # Row buffer hit rate for reads
system.mem_ctrls0.writeRowHitRate               65.39                       # Row buffer hit rate for writes
system.mem_ctrls0.avgGap                    210864.07                       # Average gap between requests
system.mem_ctrls0.pageHitRate                   70.42                       # Row buffer hit rate, read and write combined
system.mem_ctrls0.memoryStateTime::IDLE   26565825750                       # Time in different power states
system.mem_ctrls0.memoryStateTime::REF     5136560000                       # Time in different power states
system.mem_ctrls0.memoryStateTime::PRE_PDN            0                       # Time in different power states
system.mem_ctrls0.memoryStateTime::ACT   122123043000                       # Time in different power states
system.mem_ctrls0.memoryStateTime::ACT_PDN            0                       # Time in different power states
system.mem_ctrls0.actEnergy::0              820297800                       # Energy for activate commands per rank (pJ)
system.mem_ctrls0.actEnergy::1              810810000                       # Energy for activate commands per rank (pJ)
system.mem_ctrls0.preEnergy::0              447583125                       # Energy for precharge commands per rank (pJ)
system.mem_ctrls0.preEnergy::1              442406250                       # Energy for precharge commands per rank (pJ)
system.mem_ctrls0.readEnergy::0            1546030200                       # Energy for read commands per rank (pJ)
system.mem_ctrls0.readEnergy::1            1532980800                       # Energy for read commands per rank (pJ)
system.mem_ctrls0.writeEnergy::0           1086281280                       # Energy for write commands per rank (pJ)
system.mem_ctrls0.writeEnergy::1           1082224800                       # Energy for write commands per rank (pJ)
system.mem_ctrls0.refreshEnergy::0        10047111360                       # Energy for refresh commands per rank (pJ)
system.mem_ctrls0.refreshEnergy::1        10047111360                       # Energy for refresh commands per rank (pJ)
system.mem_ctrls0.actBackEnergy::0        61122960765                       # Energy for active background per rank (pJ)
system.mem_ctrls0.actBackEnergy::1        60865504875                       # Energy for active background per rank (pJ)
system.mem_ctrls0.preBackEnergy::0        38678616750                       # Energy for precharge background per rank (pJ)
system.mem_ctrls0.preBackEnergy::1        38904455250                       # Energy for precharge background per rank (pJ)
system.mem_ctrls0.totalEnergy::0         113748881280                       # Total energy per rank (pJ)
system.mem_ctrls0.totalEnergy::1         113685493335                       # Total energy per rank (pJ)
system.mem_ctrls0.averagePower::0          739.467410                       # Core power per rank (mW)
system.mem_ctrls0.averagePower::1          739.055333                       # Core power per rank (mW)
system.mem_ctrls1.bytes_read::ruby.dir_cntrl1     24508864                       # Number of bytes read from this memory
system.mem_ctrls1.bytes_read::total          24508864                       # Number of bytes read from this memory
system.mem_ctrls1.bytes_written::ruby.dir_cntrl1     20683328                       # Number of bytes written to this memory
system.mem_ctrls1.bytes_written::total       20683328                       # Number of bytes written to this memory
system.mem_ctrls1.num_reads::ruby.dir_cntrl1       382951                       # Number of read requests responded to by this memory
system.mem_ctrls1.num_reads::total             382951                       # Number of read requests responded to by this memory
system.mem_ctrls1.num_writes::ruby.dir_cntrl1       323177                       # Number of write requests responded to by this memory
system.mem_ctrls1.num_writes::total            323177                       # Number of write requests responded to by this memory
system.mem_ctrls1.bw_read::ruby.dir_cntrl1    159322349                       # Total read bandwidth from this memory (bytes/s)
system.mem_ctrls1.bw_read::total            159322349                       # Total read bandwidth from this memory (bytes/s)
system.mem_ctrls1.bw_write::ruby.dir_cntrl1    134454065                       # Write bandwidth from this memory (bytes/s)
system.mem_ctrls1.bw_write::total           134454065                       # Write bandwidth from this memory (bytes/s)
system.mem_ctrls1.bw_total::ruby.dir_cntrl1    293776414                       # Total bandwidth to/from this memory (bytes/s)
system.mem_ctrls1.bw_total::total           293776414                       # Total bandwidth to/from this memory (bytes/s)
system.mem_ctrls1.readReqs                     382951                       # Number of read requests accepted
system.mem_ctrls1.writeReqs                    323177                       # Number of write requests accepted
system.mem_ctrls1.readBursts                   382951                       # Number of DRAM read bursts, including those serviced by the write queue
system.mem_ctrls1.writeBursts                  323177                       # Number of DRAM write bursts, including those merged in the write queue
system.mem_ctrls1.bytesReadDRAM              24507904                       # Total number of bytes read from DRAM
system.mem_ctrls1.bytesReadWrQ                    960                       # Total number of bytes read from write queue
system.mem_ctrls1.bytesWritten               20683264                       # Total number of bytes written to DRAM
system.mem_ctrls1.bytesReadSys               24508864                       # Total read bytes from the system interface side
system.mem_ctrls1.bytesWrittenSys            20683328                       # Total written bytes from the system interface side
system.mem_ctrls1.servicedByWrQ                    15                       # Number of DRAM read bursts serviced by the write queue
system.mem_ctrls1.mergedWrBursts                    0                       # Number of DRAM write bursts merged with an existing one
system.mem_ctrls1.neitherReadNorWriteReqs            0                       # Number of requests that are neither read nor write
system.mem_ctrls1.perBankRdBursts::0            23652                       # Per bank write bursts
system.mem_ctrls1.perBankRdBursts::1            24328                       # Per bank write bursts
system.mem_ctrls1.perBankRdBursts::2            23891                       # Per bank write bursts
system.mem_ctrls1.perBankRdBursts::3            24204                       # Per bank write bursts
system.mem_ctrls1.perBankRdBursts::4            23868                       # Per bank write bursts
system.mem_ctrls1.perBankRdBursts::5            24184                       # Per bank write bursts
system.mem_ctrls1.perBankRdBursts::6            24227                       # Per bank write bursts
system.mem_ctrls1.perBankRdBursts::7            24040                       # Per bank write bursts
system.mem_ctrls1.perBankRdBursts::8            23915                       # Per bank write bursts
system.mem_ctrls1.perBankRdBursts::9            24037                       # Per bank write bursts
system.mem_ctrls1.perBankRdBursts::10           23807                       # Per bank write bursts
system.mem_ctrls1.perBankRdBursts::11           24347                       # Per bank write bursts
system.mem_ctrls1.perBankRdBursts::12           23593                       # Per bank write bursts
system.mem_ctrls1.perBankRdBursts::13           23492                       # Per bank write bursts
system.mem_ctrls1.perBankRdBursts::14           23598                       # Per bank write bursts
system.mem_ctrls1.perBankRdBursts::15           23753                       # Per bank write bursts
system.mem_ctrls1.perBankWrBursts::0            20220                       # Per bank write bursts
system.mem_ctrls1.perBankWrBursts::1            20130                       # Per bank write bursts
system.mem_ctrls1.perBankWrBursts::2            20128                       # Per bank write bursts
system.mem_ctrls1.perBankWrBursts::3            20422                       # Per bank write bursts
system.mem_ctrls1.perBankWrBursts::4            20057                       # Per bank write bursts
system.mem_ctrls1.perBankWrBursts::5            20355                       # Per bank write bursts
system.mem_ctrls1.perBankWrBursts::6            20313                       # Per bank write bursts
system.mem_ctrls1.perBankWrBursts::7            20291                       # Per bank write bursts
system.mem_ctrls1.perBankWrBursts::8            20394                       # Per bank write bursts
system.mem_ctrls1.perBankWrBursts::9            20201                       # Per bank write bursts
system.mem_ctrls1.perBankWrBursts::10           20123                       # Per bank write bursts
system.mem_ctrls1.perBankWrBursts::11           20165                       # Per bank write bursts
system.mem_ctrls1.perBankWrBursts::12           19909                       # Per bank write bursts
system.mem_ctrls1.perBankWrBursts::13           20182                       # Per bank write bursts
system.mem_ctrls1.perBankWrBursts::14           20181                       # Per bank write bursts
system.mem_ctrls1.perBankWrBursts::15           20105                       # Per bank write bursts
system.mem_ctrls1.numRdRetry                    90521                       # Number of times read queue was full causing retry
system.mem_ctrls1.numWrRetry                    12592                       # Number of times write queue was full causing retry
system.mem_ctrls1.totGap                 153831172500                       # Total gap between requests
system.mem_ctrls1.readPktSize::0                    0                       # Read request sizes (log2)
system.mem_ctrls1.readPktSize::1                    0                       # Read request sizes (log2)
system.mem_ctrls1.readPktSize::2                    0                       # Read request sizes (log2)
system.mem_ctrls1.readPktSize::3                    0                       # Read request sizes (log2)
system.mem_ctrls1.readPktSize::4                    0                       # Read request sizes (log2)
system.mem_ctrls1.readPktSize::5                    0                       # Read request sizes (log2)
system.mem_ctrls1.readPktSize::6               382951                       # Read request sizes (log2)
system.mem_ctrls1.writePktSize::0                   0                       # Write request sizes (log2)
system.mem_ctrls1.writePktSize::1                   0                       # Write request sizes (log2)
system.mem_ctrls1.writePktSize::2                   0                       # Write request sizes (log2)
system.mem_ctrls1.writePktSize::3                   0                       # Write request sizes (log2)
system.mem_ctrls1.writePktSize::4                   0                       # Write request sizes (log2)
system.mem_ctrls1.writePktSize::5                   0                       # Write request sizes (log2)
system.mem_ctrls1.writePktSize::6              323177                       # Write request sizes (log2)
system.mem_ctrls1.rdQLenPdf::0                 200524                       # What read queue length does an incoming req see
system.mem_ctrls1.rdQLenPdf::1                   1533                       # What read queue length does an incoming req see
system.mem_ctrls1.rdQLenPdf::2                   1042                       # What read queue length does an incoming req see
system.mem_ctrls1.rdQLenPdf::3                   1291                       # What read queue length does an incoming req see
system.mem_ctrls1.rdQLenPdf::4                   1504                       # What read queue length does an incoming req see
system.mem_ctrls1.rdQLenPdf::5                   1784                       # What read queue length does an incoming req see
system.mem_ctrls1.rdQLenPdf::6                   2034                       # What read queue length does an incoming req see
system.mem_ctrls1.rdQLenPdf::7                   2106                       # What read queue length does an incoming req see
system.mem_ctrls1.rdQLenPdf::8                   2318                       # What read queue length does an incoming req see
system.mem_ctrls1.rdQLenPdf::9                   2429                       # What read queue length does an incoming req see
system.mem_ctrls1.rdQLenPdf::10                  2504                       # What read queue length does an incoming req see
system.mem_ctrls1.rdQLenPdf::11                  2566                       # What read queue length does an incoming req see
system.mem_ctrls1.rdQLenPdf::12                  2557                       # What read queue length does an incoming req see
system.mem_ctrls1.rdQLenPdf::13                  2680                       # What read queue length does an incoming req see
system.mem_ctrls1.rdQLenPdf::14                  2702                       # What read queue length does an incoming req see
system.mem_ctrls1.rdQLenPdf::15                  2704                       # What read queue length does an incoming req see
system.mem_ctrls1.rdQLenPdf::16                  2922                       # What read queue length does an incoming req see
system.mem_ctrls1.rdQLenPdf::17                  2938                       # What read queue length does an incoming req see
system.mem_ctrls1.rdQLenPdf::18                  2968                       # What read queue length does an incoming req see
system.mem_ctrls1.rdQLenPdf::19                  3088                       # What read queue length does an incoming req see
system.mem_ctrls1.rdQLenPdf::20                  3170                       # What read queue length does an incoming req see
system.mem_ctrls1.rdQLenPdf::21                  3192                       # What read queue length does an incoming req see
system.mem_ctrls1.rdQLenPdf::22                  3312                       # What read queue length does an incoming req see
system.mem_ctrls1.rdQLenPdf::23                  3333                       # What read queue length does an incoming req see
system.mem_ctrls1.rdQLenPdf::24                  3370                       # What read queue length does an incoming req see
system.mem_ctrls1.rdQLenPdf::25                  3523                       # What read queue length does an incoming req see
system.mem_ctrls1.rdQLenPdf::26                  3694                       # What read queue length does an incoming req see
system.mem_ctrls1.rdQLenPdf::27                  4013                       # What read queue length does an incoming req see
system.mem_ctrls1.rdQLenPdf::28                  4200                       # What read queue length does an incoming req see
system.mem_ctrls1.rdQLenPdf::29                  4611                       # What read queue length does an incoming req see
system.mem_ctrls1.rdQLenPdf::30                  5175                       # What read queue length does an incoming req see
system.mem_ctrls1.rdQLenPdf::31                 97149                       # What read queue length does an incoming req see
system.mem_ctrls1.wrQLenPdf::0                  46739                       # What write queue length does an incoming req see
system.mem_ctrls1.wrQLenPdf::1                  50634                       # What write queue length does an incoming req see
system.mem_ctrls1.wrQLenPdf::2                  52443                       # What write queue length does an incoming req see
system.mem_ctrls1.wrQLenPdf::3                  53292                       # What write queue length does an incoming req see
system.mem_ctrls1.wrQLenPdf::4                  54043                       # What write queue length does an incoming req see
system.mem_ctrls1.wrQLenPdf::5                  16817                       # What write queue length does an incoming req see
system.mem_ctrls1.wrQLenPdf::6                  20192                       # What write queue length does an incoming req see
system.mem_ctrls1.wrQLenPdf::7                  29017                       # What write queue length does an incoming req see
system.mem_ctrls1.bytesPerActivate::samples       187625                       # Bytes accessed per row activation
system.mem_ctrls1.bytesPerActivate::mean   240.852168                       # Bytes accessed per row activation
system.mem_ctrls1.bytesPerActivate::gmean   190.030508                       # Bytes accessed per row activation
system.mem_ctrls1.bytesPerActivate::stdev   169.664847                       # Bytes accessed per row activation
system.mem_ctrls1.bytesPerActivate::0-127        40497     21.58%     21.58% # Bytes accessed per row activation
system.mem_ctrls1.bytesPerActivate::128-255        53475     28.50%     50.09% # Bytes accessed per row activation
system.mem_ctrls1.bytesPerActivate::256-383        70090     37.36%     87.44% # Bytes accessed per row activation
system.mem_ctrls1.bytesPerActivate::384-511        10507      5.60%     93.04% # Bytes accessed per row activation
system.mem_ctrls1.bytesPerActivate::512-639         5925      3.16%     96.20% # Bytes accessed per row activation
system.mem_ctrls1.bytesPerActivate::640-767         2662      1.42%     97.62% # Bytes accessed per row activation
system.mem_ctrls1.bytesPerActivate::768-895         1526      0.81%     98.43% # Bytes accessed per row activation
system.mem_ctrls1.bytesPerActivate::896-1023         1070      0.57%     99.00% # Bytes accessed per row activation
system.mem_ctrls1.bytesPerActivate::1024-1151         1873      1.00%    100.00% # Bytes accessed per row activation
system.mem_ctrls1.bytesPerActivate::total       187625                       # Bytes accessed per row activation
system.mem_ctrls1.rdPerTurnAround::samples        48479                       # Reads before turning the bus around for writes
system.mem_ctrls1.rdPerTurnAround::mean      7.898884                       # Reads before turning the bus around for writes
system.mem_ctrls1.rdPerTurnAround::stdev    15.634309                       # Reads before turning the bus around for writes
system.mem_ctrls1.rdPerTurnAround::0-127        48473     99.99%     99.99% # Reads before turning the bus around for writes
system.mem_ctrls1.rdPerTurnAround::128-255            4      0.01%    100.00% # Reads before turning the bus around for writes
system.mem_ctrls1.rdPerTurnAround::1152-1279            1      0.00%    100.00% # Reads before turning the bus around for writes
system.mem_ctrls1.rdPerTurnAround::2816-2943            1      0.00%    100.00% # Reads before turning the bus around for writes
system.mem_ctrls1.rdPerTurnAround::total        48479                       # Reads before turning the bus around for writes
system.mem_ctrls1.wrPerTurnAround::samples        48479                       # Writes before turning the bus around for reads
system.mem_ctrls1.wrPerTurnAround::mean      6.666309                       # Writes before turning the bus around for reads
system.mem_ctrls1.wrPerTurnAround::gmean     6.076843                       # Writes before turning the bus around for reads
system.mem_ctrls1.wrPerTurnAround::stdev     3.452055                       # Writes before turning the bus around for reads
system.mem_ctrls1.wrPerTurnAround::4-7          38570     79.56%     79.56% # Writes before turning the bus around for reads
system.mem_ctrls1.wrPerTurnAround::8-11          2924      6.03%     85.59% # Writes before turning the bus around for reads
system.mem_ctrls1.wrPerTurnAround::12-15         4301      8.87%     94.46% # Writes before turning the bus around for reads
system.mem_ctrls1.wrPerTurnAround::16-19         2684      5.54%    100.00% # Writes before turning the bus around for reads
system.mem_ctrls1.wrPerTurnAround::total        48479                       # Writes before turning the bus around for reads
system.mem_ctrls1.totQLat                 58127687899                       # Total ticks spent queuing
system.mem_ctrls1.totMemAccLat            65307737899                       # Total ticks spent from burst creation until serviced by the DRAM
system.mem_ctrls1.totBusLat                1914680000                       # Total ticks spent in databus transfers
system.mem_ctrls1.avgQLat                   151794.79                       # Average queueing delay per DRAM burst
system.mem_ctrls1.avgBusLat                   5000.00                       # Average bus latency per DRAM burst
system.mem_ctrls1.avgMemAccLat              170544.79                       # Average memory access latency per DRAM burst
system.mem_ctrls1.avgRdBW                      159.32                       # Average DRAM read bandwidth in MiByte/s
system.mem_ctrls1.avgWrBW                      134.45                       # Average achieved write bandwidth in MiByte/s
system.mem_ctrls1.avgRdBWSys                   159.32                       # Average system read bandwidth in MiByte/s
system.mem_ctrls1.avgWrBWSys                   134.45                       # Average system write bandwidth in MiByte/s
system.mem_ctrls1.peakBW                     12800.00                       # Theoretical peak bandwidth in MiByte/s
system.mem_ctrls1.busUtil                        2.30                       # Data bus utilization in percentage
system.mem_ctrls1.busUtilRead                    1.24                       # Data bus utilization in percentage for reads
system.mem_ctrls1.busUtilWrite                   1.05                       # Data bus utilization in percentage for writes
system.mem_ctrls1.avgRdQLen                      1.38                       # Average read queue length when enqueuing
system.mem_ctrls1.avgWrQLen                      2.99                       # Average write queue length when enqueuing
system.mem_ctrls1.readRowHits                  291037                       # Number of row buffer hits during reads
system.mem_ctrls1.writeRowHits                 227441                       # Number of row buffer hits during writes
system.mem_ctrls1.readRowHitRate                76.00                       # Row buffer hit rate for reads
system.mem_ctrls1.writeRowHitRate               70.38                       # Row buffer hit rate for writes
system.mem_ctrls1.avgGap                    217851.68                       # Average gap between requests
system.mem_ctrls1.pageHitRate                   73.43                       # Row buffer hit rate, read and write combined
system.mem_ctrls1.memoryStateTime::IDLE   27041890500                       # Time in different power states
system.mem_ctrls1.memoryStateTime::REF     5136560000                       # Time in different power states
system.mem_ctrls1.memoryStateTime::PRE_PDN            0                       # Time in different power states
system.mem_ctrls1.memoryStateTime::ACT   121646978250                       # Time in different power states
system.mem_ctrls1.memoryStateTime::ACT_PDN            0                       # Time in different power states
system.mem_ctrls1.actEnergy::0              714820680                       # Energy for activate commands per rank (pJ)
system.mem_ctrls1.actEnergy::1              703526040                       # Energy for activate commands per rank (pJ)
system.mem_ctrls1.preEnergy::0              390031125                       # Energy for precharge commands per rank (pJ)
system.mem_ctrls1.preEnergy::1              383868375                       # Energy for precharge commands per rank (pJ)
system.mem_ctrls1.readEnergy::0            1500259800                       # Energy for read commands per rank (pJ)
system.mem_ctrls1.readEnergy::1            1486173000                       # Energy for read commands per rank (pJ)
system.mem_ctrls1.writeEnergy::0           1049176800                       # Energy for write commands per rank (pJ)
system.mem_ctrls1.writeEnergy::1           1044647280                       # Energy for write commands per rank (pJ)
system.mem_ctrls1.refreshEnergy::0        10047111360                       # Energy for refresh commands per rank (pJ)
system.mem_ctrls1.refreshEnergy::1        10047111360                       # Energy for refresh commands per rank (pJ)
system.mem_ctrls1.actBackEnergy::0        60091213455                       # Energy for active background per rank (pJ)
system.mem_ctrls1.actBackEnergy::1        59612781105                       # Energy for active background per rank (pJ)
system.mem_ctrls1.preBackEnergy::0        39583658250                       # Energy for precharge background per rank (pJ)
system.mem_ctrls1.preBackEnergy::1        40003335750                       # Energy for precharge background per rank (pJ)
system.mem_ctrls1.totalEnergy::0         113376271470                       # Total energy per rank (pJ)
system.mem_ctrls1.totalEnergy::1         113281442910                       # Total energy per rank (pJ)
system.mem_ctrls1.averagePower::0          737.045120                       # Core power per rank (mW)
system.mem_ctrls1.averagePower::1          736.428651                       # Core power per rank (mW)
system.mem_ctrls2.bytes_read::ruby.dir_cntrl2     24509696                       # Number of bytes read from this memory
system.mem_ctrls2.bytes_read::total          24509696                       # Number of bytes read from this memory
system.mem_ctrls2.bytes_written::ruby.dir_cntrl2     20684800                       # Number of bytes written to this memory
system.mem_ctrls2.bytes_written::total       20684800                       # Number of bytes written to this memory
system.mem_ctrls2.num_reads::ruby.dir_cntrl2       382964                       # Number of read requests responded to by this memory
system.mem_ctrls2.num_reads::total             382964                       # Number of read requests responded to by this memory
system.mem_ctrls2.num_writes::ruby.dir_cntrl2       323200                       # Number of write requests responded to by this memory
system.mem_ctrls2.num_writes::total            323200                       # Number of write requests responded to by this memory
system.mem_ctrls2.bw_read::ruby.dir_cntrl2    159327757                       # Total read bandwidth from this memory (bytes/s)
system.mem_ctrls2.bw_read::total            159327757                       # Total read bandwidth from this memory (bytes/s)
system.mem_ctrls2.bw_write::ruby.dir_cntrl2    134463634                       # Write bandwidth from this memory (bytes/s)
system.mem_ctrls2.bw_write::total           134463634                       # Write bandwidth from this memory (bytes/s)
system.mem_ctrls2.bw_total::ruby.dir_cntrl2    293791391                       # Total bandwidth to/from this memory (bytes/s)
system.mem_ctrls2.bw_total::total           293791391                       # Total bandwidth to/from this memory (bytes/s)
system.mem_ctrls2.readReqs                     382964                       # Number of read requests accepted
system.mem_ctrls2.writeReqs                    323200                       # Number of write requests accepted
system.mem_ctrls2.readBursts                   382964                       # Number of DRAM read bursts, including those serviced by the write queue
system.mem_ctrls2.writeBursts                  323200                       # Number of DRAM write bursts, including those merged in the write queue
system.mem_ctrls2.bytesReadDRAM              24508544                       # Total number of bytes read from DRAM
system.mem_ctrls2.bytesReadWrQ                   1152                       # Total number of bytes read from write queue
system.mem_ctrls2.bytesWritten               20684736                       # Total number of bytes written to DRAM
system.mem_ctrls2.bytesReadSys               24509696                       # Total read bytes from the system interface side
system.mem_ctrls2.bytesWrittenSys            20684800                       # Total written bytes from the system interface side
system.mem_ctrls2.servicedByWrQ                    18                       # Number of DRAM read bursts serviced by the write queue
system.mem_ctrls2.mergedWrBursts                    0                       # Number of DRAM write bursts merged with an existing one
system.mem_ctrls2.neitherReadNorWriteReqs            0                       # Number of requests that are neither read nor write
system.mem_ctrls2.perBankRdBursts::0            23640                       # Per bank write bursts
system.mem_ctrls2.perBankRdBursts::1            24299                       # Per bank write bursts
system.mem_ctrls2.perBankRdBursts::2            23934                       # Per bank write bursts
system.mem_ctrls2.perBankRdBursts::3            24276                       # Per bank write bursts
system.mem_ctrls2.perBankRdBursts::4            23867                       # Per bank write bursts
system.mem_ctrls2.perBankRdBursts::5            24156                       # Per bank write bursts
system.mem_ctrls2.perBankRdBursts::6            24231                       # Per bank write bursts
system.mem_ctrls2.perBankRdBursts::7            24028                       # Per bank write bursts
system.mem_ctrls2.perBankRdBursts::8            23897                       # Per bank write bursts
system.mem_ctrls2.perBankRdBursts::9            24049                       # Per bank write bursts
system.mem_ctrls2.perBankRdBursts::10           23815                       # Per bank write bursts
system.mem_ctrls2.perBankRdBursts::11           24325                       # Per bank write bursts
system.mem_ctrls2.perBankRdBursts::12           23625                       # Per bank write bursts
system.mem_ctrls2.perBankRdBursts::13           23435                       # Per bank write bursts
system.mem_ctrls2.perBankRdBursts::14           23589                       # Per bank write bursts
system.mem_ctrls2.perBankRdBursts::15           23780                       # Per bank write bursts
system.mem_ctrls2.perBankWrBursts::0            20214                       # Per bank write bursts
system.mem_ctrls2.perBankWrBursts::1            20127                       # Per bank write bursts
system.mem_ctrls2.perBankWrBursts::2            20131                       # Per bank write bursts
system.mem_ctrls2.perBankWrBursts::3            20427                       # Per bank write bursts
system.mem_ctrls2.perBankWrBursts::4            20058                       # Per bank write bursts
system.mem_ctrls2.perBankWrBursts::5            20339                       # Per bank write bursts
system.mem_ctrls2.perBankWrBursts::6            20320                       # Per bank write bursts
system.mem_ctrls2.perBankWrBursts::7            20299                       # Per bank write bursts
system.mem_ctrls2.perBankWrBursts::8            20396                       # Per bank write bursts
system.mem_ctrls2.perBankWrBursts::9            20208                       # Per bank write bursts
system.mem_ctrls2.perBankWrBursts::10           20116                       # Per bank write bursts
system.mem_ctrls2.perBankWrBursts::11           20162                       # Per bank write bursts
system.mem_ctrls2.perBankWrBursts::12           19917                       # Per bank write bursts
system.mem_ctrls2.perBankWrBursts::13           20177                       # Per bank write bursts
system.mem_ctrls2.perBankWrBursts::14           20188                       # Per bank write bursts
system.mem_ctrls2.perBankWrBursts::15           20120                       # Per bank write bursts
system.mem_ctrls2.numRdRetry                    85862                       # Number of times read queue was full causing retry
system.mem_ctrls2.numWrRetry                    12669                       # Number of times write queue was full causing retry
system.mem_ctrls2.totGap                 153831072500                       # Total gap between requests
system.mem_ctrls2.readPktSize::0                    0                       # Read request sizes (log2)
system.mem_ctrls2.readPktSize::1                    0                       # Read request sizes (log2)
system.mem_ctrls2.readPktSize::2                    0                       # Read request sizes (log2)
system.mem_ctrls2.readPktSize::3                    0                       # Read request sizes (log2)
system.mem_ctrls2.readPktSize::4                    0                       # Read request sizes (log2)
system.mem_ctrls2.readPktSize::5                    0                       # Read request sizes (log2)
system.mem_ctrls2.readPktSize::6               382964                       # Read request sizes (log2)
system.mem_ctrls2.writePktSize::0                   0                       # Write request sizes (log2)
system.mem_ctrls2.writePktSize::1                   0                       # Write request sizes (log2)
system.mem_ctrls2.writePktSize::2                   0                       # Write request sizes (log2)
system.mem_ctrls2.writePktSize::3                   0                       # Write request sizes (log2)
system.mem_ctrls2.writePktSize::4                   0                       # Write request sizes (log2)
system.mem_ctrls2.writePktSize::5                   0                       # Write request sizes (log2)
system.mem_ctrls2.writePktSize::6              323200                       # Write request sizes (log2)
system.mem_ctrls2.rdQLenPdf::0                 200739                       # What read queue length does an incoming req see
system.mem_ctrls2.rdQLenPdf::1                   1323                       # What read queue length does an incoming req see
system.mem_ctrls2.rdQLenPdf::2                   1071                       # What read queue length does an incoming req see
system.mem_ctrls2.rdQLenPdf::3                   1356                       # What read queue length does an incoming req see
system.mem_ctrls2.rdQLenPdf::4                   1588                       # What read queue length does an incoming req see
system.mem_ctrls2.rdQLenPdf::5                   1825                       # What read queue length does an incoming req see
system.mem_ctrls2.rdQLenPdf::6                   2000                       # What read queue length does an incoming req see
system.mem_ctrls2.rdQLenPdf::7                   2215                       # What read queue length does an incoming req see
system.mem_ctrls2.rdQLenPdf::8                   2318                       # What read queue length does an incoming req see
system.mem_ctrls2.rdQLenPdf::9                   2427                       # What read queue length does an incoming req see
system.mem_ctrls2.rdQLenPdf::10                  2523                       # What read queue length does an incoming req see
system.mem_ctrls2.rdQLenPdf::11                  2546                       # What read queue length does an incoming req see
system.mem_ctrls2.rdQLenPdf::12                  2558                       # What read queue length does an incoming req see
system.mem_ctrls2.rdQLenPdf::13                  2731                       # What read queue length does an incoming req see
system.mem_ctrls2.rdQLenPdf::14                  2818                       # What read queue length does an incoming req see
system.mem_ctrls2.rdQLenPdf::15                  3040                       # What read queue length does an incoming req see
system.mem_ctrls2.rdQLenPdf::16                  3086                       # What read queue length does an incoming req see
system.mem_ctrls2.rdQLenPdf::17                  3106                       # What read queue length does an incoming req see
system.mem_ctrls2.rdQLenPdf::18                  3257                       # What read queue length does an incoming req see
system.mem_ctrls2.rdQLenPdf::19                  3364                       # What read queue length does an incoming req see
system.mem_ctrls2.rdQLenPdf::20                  3424                       # What read queue length does an incoming req see
system.mem_ctrls2.rdQLenPdf::21                  3434                       # What read queue length does an incoming req see
system.mem_ctrls2.rdQLenPdf::22                  3477                       # What read queue length does an incoming req see
system.mem_ctrls2.rdQLenPdf::23                  3564                       # What read queue length does an incoming req see
system.mem_ctrls2.rdQLenPdf::24                  3633                       # What read queue length does an incoming req see
system.mem_ctrls2.rdQLenPdf::25                  3781                       # What read queue length does an incoming req see
system.mem_ctrls2.rdQLenPdf::26                  4055                       # What read queue length does an incoming req see
system.mem_ctrls2.rdQLenPdf::27                  4357                       # What read queue length does an incoming req see
system.mem_ctrls2.rdQLenPdf::28                  4595                       # What read queue length does an incoming req see
system.mem_ctrls2.rdQLenPdf::29                  4807                       # What read queue length does an incoming req see
system.mem_ctrls2.rdQLenPdf::30                  5276                       # What read queue length does an incoming req see
system.mem_ctrls2.rdQLenPdf::31                 92652                       # What read queue length does an incoming req see
system.mem_ctrls2.wrQLenPdf::0                  46826                       # What write queue length does an incoming req see
system.mem_ctrls2.wrQLenPdf::1                  50751                       # What write queue length does an incoming req see
system.mem_ctrls2.wrQLenPdf::2                  52515                       # What write queue length does an incoming req see
system.mem_ctrls2.wrQLenPdf::3                  53412                       # What write queue length does an incoming req see
system.mem_ctrls2.wrQLenPdf::4                  54074                       # What write queue length does an incoming req see
system.mem_ctrls2.wrQLenPdf::5                  16644                       # What write queue length does an incoming req see
system.mem_ctrls2.wrQLenPdf::6                  19786                       # What write queue length does an incoming req see
system.mem_ctrls2.wrQLenPdf::7                  29192                       # What write queue length does an incoming req see
system.mem_ctrls2.bytesPerActivate::samples       186896                       # Bytes accessed per row activation
system.mem_ctrls2.bytesPerActivate::mean   241.804982                       # Bytes accessed per row activation
system.mem_ctrls2.bytesPerActivate::gmean   191.031580                       # Bytes accessed per row activation
system.mem_ctrls2.bytesPerActivate::stdev   169.683115                       # Bytes accessed per row activation
system.mem_ctrls2.bytesPerActivate::0-127        39853     21.32%     21.32% # Bytes accessed per row activation
system.mem_ctrls2.bytesPerActivate::128-255        52537     28.11%     49.43% # Bytes accessed per row activation
system.mem_ctrls2.bytesPerActivate::256-383        70813     37.89%     87.32% # Bytes accessed per row activation
system.mem_ctrls2.bytesPerActivate::384-511        10534      5.64%     92.96% # Bytes accessed per row activation
system.mem_ctrls2.bytesPerActivate::512-639         5995      3.21%     96.17% # Bytes accessed per row activation
system.mem_ctrls2.bytesPerActivate::640-767         2686      1.44%     97.60% # Bytes accessed per row activation
system.mem_ctrls2.bytesPerActivate::768-895         1537      0.82%     98.43% # Bytes accessed per row activation
system.mem_ctrls2.bytesPerActivate::896-1023         1045      0.56%     98.99% # Bytes accessed per row activation
system.mem_ctrls2.bytesPerActivate::1024-1151         1896      1.01%    100.00% # Bytes accessed per row activation
system.mem_ctrls2.bytesPerActivate::total       186896                       # Bytes accessed per row activation
system.mem_ctrls2.rdPerTurnAround::samples        48546                       # Reads before turning the bus around for writes
system.mem_ctrls2.rdPerTurnAround::mean      7.888250                       # Reads before turning the bus around for writes
system.mem_ctrls2.rdPerTurnAround::stdev    15.672335                       # Reads before turning the bus around for writes
system.mem_ctrls2.rdPerTurnAround::0-127        48540     99.99%     99.99% # Reads before turning the bus around for writes
system.mem_ctrls2.rdPerTurnAround::128-255            4      0.01%    100.00% # Reads before turning the bus around for writes
system.mem_ctrls2.rdPerTurnAround::1152-1279            1      0.00%    100.00% # Reads before turning the bus around for writes
system.mem_ctrls2.rdPerTurnAround::2816-2943            1      0.00%    100.00% # Reads before turning the bus around for writes
system.mem_ctrls2.rdPerTurnAround::total        48546                       # Reads before turning the bus around for writes
system.mem_ctrls2.wrPerTurnAround::samples        48546                       # Writes before turning the bus around for reads
system.mem_ctrls2.wrPerTurnAround::mean      6.657582                       # Writes before turning the bus around for reads
system.mem_ctrls2.wrPerTurnAround::gmean     6.073275                       # Writes before turning the bus around for reads
system.mem_ctrls2.wrPerTurnAround::stdev     3.435952                       # Writes before turning the bus around for reads
system.mem_ctrls2.wrPerTurnAround::4-7          38594     79.50%     79.50% # Writes before turning the bus around for reads
system.mem_ctrls2.wrPerTurnAround::8-11          3103      6.39%     85.89% # Writes before turning the bus around for reads
system.mem_ctrls2.wrPerTurnAround::12-15         4151      8.55%     94.44% # Writes before turning the bus around for reads
system.mem_ctrls2.wrPerTurnAround::16-19         2698      5.56%    100.00% # Writes before turning the bus around for reads
system.mem_ctrls2.wrPerTurnAround::total        48546                       # Writes before turning the bus around for reads
system.mem_ctrls2.totQLat                 57540166491                       # Total ticks spent queuing
system.mem_ctrls2.totMemAccLat            64720403991                       # Total ticks spent from burst creation until serviced by the DRAM
system.mem_ctrls2.totBusLat                1914730000                       # Total ticks spent in databus transfers
system.mem_ctrls2.avgQLat                   150256.61                       # Average queueing delay per DRAM burst
system.mem_ctrls2.avgBusLat                   5000.00                       # Average bus latency per DRAM burst
system.mem_ctrls2.avgMemAccLat              169006.61                       # Average memory access latency per DRAM burst
system.mem_ctrls2.avgRdBW                      159.32                       # Average DRAM read bandwidth in MiByte/s
system.mem_ctrls2.avgWrBW                      134.46                       # Average achieved write bandwidth in MiByte/s
system.mem_ctrls2.avgRdBWSys                   159.33                       # Average system read bandwidth in MiByte/s
system.mem_ctrls2.avgWrBWSys                   134.46                       # Average system write bandwidth in MiByte/s
system.mem_ctrls2.peakBW                     12800.00                       # Theoretical peak bandwidth in MiByte/s
system.mem_ctrls2.busUtil                        2.30                       # Data bus utilization in percentage
system.mem_ctrls2.busUtilRead                    1.24                       # Data bus utilization in percentage for reads
system.mem_ctrls2.busUtilWrite                   1.05                       # Data bus utilization in percentage for writes
system.mem_ctrls2.avgRdQLen                      1.38                       # Average read queue length when enqueuing
system.mem_ctrls2.avgWrQLen                      3.01                       # Average write queue length when enqueuing
system.mem_ctrls2.readRowHits                  291173                       # Number of row buffer hits during reads
system.mem_ctrls2.writeRowHits                 228065                       # Number of row buffer hits during writes
system.mem_ctrls2.readRowHitRate                76.04                       # Row buffer hit rate for reads
system.mem_ctrls2.writeRowHitRate               70.56                       # Row buffer hit rate for writes
system.mem_ctrls2.avgGap                    217840.43                       # Average gap between requests
system.mem_ctrls2.pageHitRate                   73.53                       # Row buffer hit rate, read and write combined
system.mem_ctrls2.memoryStateTime::IDLE   27138611750                       # Time in different power states
system.mem_ctrls2.memoryStateTime::REF     5136560000                       # Time in different power states
system.mem_ctrls2.memoryStateTime::PRE_PDN            0                       # Time in different power states
system.mem_ctrls2.memoryStateTime::ACT   121550257000                       # Time in different power states
system.mem_ctrls2.memoryStateTime::ACT_PDN            0                       # Time in different power states
system.mem_ctrls2.actEnergy::0              711396000                       # Energy for activate commands per rank (pJ)
system.mem_ctrls2.actEnergy::1              701394120                       # Energy for activate commands per rank (pJ)
system.mem_ctrls2.preEnergy::0              388162500                       # Energy for precharge commands per rank (pJ)
system.mem_ctrls2.preEnergy::1              382705125                       # Energy for precharge commands per rank (pJ)
system.mem_ctrls2.readEnergy::0            1500548400                       # Energy for read commands per rank (pJ)
system.mem_ctrls2.readEnergy::1            1485970200                       # Energy for read commands per rank (pJ)
system.mem_ctrls2.writeEnergy::0           1049157360                       # Energy for write commands per rank (pJ)
system.mem_ctrls2.writeEnergy::1           1044789840                       # Energy for write commands per rank (pJ)
system.mem_ctrls2.refreshEnergy::0        10047111360                       # Energy for refresh commands per rank (pJ)
system.mem_ctrls2.refreshEnergy::1        10047111360                       # Energy for refresh commands per rank (pJ)
system.mem_ctrls2.actBackEnergy::0        59668630560                       # Energy for active background per rank (pJ)
system.mem_ctrls2.actBackEnergy::1        59204714400                       # Energy for active background per rank (pJ)
system.mem_ctrls2.preBackEnergy::0        39954345000                       # Energy for precharge background per rank (pJ)
system.mem_ctrls2.preBackEnergy::1        40361289000                       # Energy for precharge background per rank (pJ)
system.mem_ctrls2.totalEnergy::0         113319351180                       # Total energy per rank (pJ)
system.mem_ctrls2.totalEnergy::1         113227974045                       # Total energy per rank (pJ)
system.mem_ctrls2.averagePower::0          736.675088                       # Core power per rank (mW)
system.mem_ctrls2.averagePower::1          736.081057                       # Core power per rank (mW)
system.mem_ctrls3.bytes_read::ruby.dir_cntrl3     24489472                       # Number of bytes read from this memory
system.mem_ctrls3.bytes_read::total          24489472                       # Number of bytes read from this memory
system.mem_ctrls3.bytes_written::ruby.dir_cntrl3     20682432                       # Number of bytes written to this memory
system.mem_ctrls3.bytes_written::total       20682432                       # Number of bytes written to this memory
system.mem_ctrls3.num_reads::ruby.dir_cntrl3       382648                       # Number of read requests responded to by this memory
system.mem_ctrls3.num_reads::total             382648                       # Number of read requests responded to by this memory
system.mem_ctrls3.num_writes::ruby.dir_cntrl3       323163                       # Number of write requests responded to by this memory
system.mem_ctrls3.num_writes::total            323163                       # Number of write requests responded to by this memory
system.mem_ctrls3.bw_read::ruby.dir_cntrl3    159196289                       # Total read bandwidth from this memory (bytes/s)
system.mem_ctrls3.bw_read::total            159196289                       # Total read bandwidth from this memory (bytes/s)
system.mem_ctrls3.bw_write::ruby.dir_cntrl3    134448241                       # Write bandwidth from this memory (bytes/s)
system.mem_ctrls3.bw_write::total           134448241                       # Write bandwidth from this memory (bytes/s)
system.mem_ctrls3.bw_total::ruby.dir_cntrl3    293644530                       # Total bandwidth to/from this memory (bytes/s)
system.mem_ctrls3.bw_total::total           293644530                       # Total bandwidth to/from this memory (bytes/s)
system.mem_ctrls3.readReqs                     382648                       # Number of read requests accepted
system.mem_ctrls3.writeReqs                    323163                       # Number of write requests accepted
system.mem_ctrls3.readBursts                   382648                       # Number of DRAM read bursts, including those serviced by the write queue
system.mem_ctrls3.writeBursts                  323163                       # Number of DRAM write bursts, including those merged in the write queue
system.mem_ctrls3.bytesReadDRAM              24488832                       # Total number of bytes read from DRAM
system.mem_ctrls3.bytesReadWrQ                    640                       # Total number of bytes read from write queue
system.mem_ctrls3.bytesWritten               20682432                       # Total number of bytes written to DRAM
system.mem_ctrls3.bytesReadSys               24489472                       # Total read bytes from the system interface side
system.mem_ctrls3.bytesWrittenSys            20682432                       # Total written bytes from the system interface side
system.mem_ctrls3.servicedByWrQ                    10                       # Number of DRAM read bursts serviced by the write queue
system.mem_ctrls3.mergedWrBursts                    0                       # Number of DRAM write bursts merged with an existing one
system.mem_ctrls3.neitherReadNorWriteReqs            0                       # Number of requests that are neither read nor write
system.mem_ctrls3.perBankRdBursts::0            23629                       # Per bank write bursts
system.mem_ctrls3.perBankRdBursts::1            24298                       # Per bank write bursts
system.mem_ctrls3.perBankRdBursts::2            23813                       # Per bank write bursts
system.mem_ctrls3.perBankRdBursts::3            24239                       # Per bank write bursts
system.mem_ctrls3.perBankRdBursts::4            23815                       # Per bank write bursts
system.mem_ctrls3.perBankRdBursts::5            24166                       # Per bank write bursts
system.mem_ctrls3.perBankRdBursts::6            24222                       # Per bank write bursts
system.mem_ctrls3.perBankRdBursts::7            24029                       # Per bank write bursts
system.mem_ctrls3.perBankRdBursts::8            23882                       # Per bank write bursts
system.mem_ctrls3.perBankRdBursts::9            24026                       # Per bank write bursts
system.mem_ctrls3.perBankRdBursts::10           23881                       # Per bank write bursts
system.mem_ctrls3.perBankRdBursts::11           24277                       # Per bank write bursts
system.mem_ctrls3.perBankRdBursts::12           23558                       # Per bank write bursts
system.mem_ctrls3.perBankRdBursts::13           23445                       # Per bank write bursts
system.mem_ctrls3.perBankRdBursts::14           23607                       # Per bank write bursts
system.mem_ctrls3.perBankRdBursts::15           23751                       # Per bank write bursts
system.mem_ctrls3.perBankWrBursts::0            20216                       # Per bank write bursts
system.mem_ctrls3.perBankWrBursts::1            20123                       # Per bank write bursts
system.mem_ctrls3.perBankWrBursts::2            20133                       # Per bank write bursts
system.mem_ctrls3.perBankWrBursts::3            20415                       # Per bank write bursts
system.mem_ctrls3.perBankWrBursts::4            20053                       # Per bank write bursts
system.mem_ctrls3.perBankWrBursts::5            20342                       # Per bank write bursts
system.mem_ctrls3.perBankWrBursts::6            20318                       # Per bank write bursts
system.mem_ctrls3.perBankWrBursts::7            20287                       # Per bank write bursts
system.mem_ctrls3.perBankWrBursts::8            20391                       # Per bank write bursts
system.mem_ctrls3.perBankWrBursts::9            20208                       # Per bank write bursts
system.mem_ctrls3.perBankWrBursts::10           20117                       # Per bank write bursts
system.mem_ctrls3.perBankWrBursts::11           20172                       # Per bank write bursts
system.mem_ctrls3.perBankWrBursts::12           19916                       # Per bank write bursts
system.mem_ctrls3.perBankWrBursts::13           20183                       # Per bank write bursts
system.mem_ctrls3.perBankWrBursts::14           20190                       # Per bank write bursts
system.mem_ctrls3.perBankWrBursts::15           20099                       # Per bank write bursts
system.mem_ctrls3.numRdRetry                    82290                       # Number of times read queue was full causing retry
system.mem_ctrls3.numWrRetry                    12036                       # Number of times write queue was full causing retry
system.mem_ctrls3.totGap                 153830776500                       # Total gap between requests
system.mem_ctrls3.readPktSize::0                    0                       # Read request sizes (log2)
system.mem_ctrls3.readPktSize::1                    0                       # Read request sizes (log2)
system.mem_ctrls3.readPktSize::2                    0                       # Read request sizes (log2)
system.mem_ctrls3.readPktSize::3                    0                       # Read request sizes (log2)
system.mem_ctrls3.readPktSize::4                    0                       # Read request sizes (log2)
system.mem_ctrls3.readPktSize::5                    0                       # Read request sizes (log2)
system.mem_ctrls3.readPktSize::6               382648                       # Read request sizes (log2)
system.mem_ctrls3.writePktSize::0                   0                       # Write request sizes (log2)
system.mem_ctrls3.writePktSize::1                   0                       # Write request sizes (log2)
system.mem_ctrls3.writePktSize::2                   0                       # Write request sizes (log2)
system.mem_ctrls3.writePktSize::3                   0                       # Write request sizes (log2)
system.mem_ctrls3.writePktSize::4                   0                       # Write request sizes (log2)
system.mem_ctrls3.writePktSize::5                   0                       # Write request sizes (log2)
system.mem_ctrls3.writePktSize::6              323163                       # Write request sizes (log2)
system.mem_ctrls3.rdQLenPdf::0                 200376                       # What read queue length does an incoming req see
system.mem_ctrls3.rdQLenPdf::1                   1382                       # What read queue length does an incoming req see
system.mem_ctrls3.rdQLenPdf::2                   1086                       # What read queue length does an incoming req see
system.mem_ctrls3.rdQLenPdf::3                   1284                       # What read queue length does an incoming req see
system.mem_ctrls3.rdQLenPdf::4                   1575                       # What read queue length does an incoming req see
system.mem_ctrls3.rdQLenPdf::5                   1924                       # What read queue length does an incoming req see
system.mem_ctrls3.rdQLenPdf::6                   2148                       # What read queue length does an incoming req see
system.mem_ctrls3.rdQLenPdf::7                   2340                       # What read queue length does an incoming req see
system.mem_ctrls3.rdQLenPdf::8                   2460                       # What read queue length does an incoming req see
system.mem_ctrls3.rdQLenPdf::9                   2574                       # What read queue length does an incoming req see
system.mem_ctrls3.rdQLenPdf::10                  2581                       # What read queue length does an incoming req see
system.mem_ctrls3.rdQLenPdf::11                  2718                       # What read queue length does an incoming req see
system.mem_ctrls3.rdQLenPdf::12                  2738                       # What read queue length does an incoming req see
system.mem_ctrls3.rdQLenPdf::13                  2981                       # What read queue length does an incoming req see
system.mem_ctrls3.rdQLenPdf::14                  3073                       # What read queue length does an incoming req see
system.mem_ctrls3.rdQLenPdf::15                  3139                       # What read queue length does an incoming req see
system.mem_ctrls3.rdQLenPdf::16                  3173                       # What read queue length does an incoming req see
system.mem_ctrls3.rdQLenPdf::17                  3315                       # What read queue length does an incoming req see
system.mem_ctrls3.rdQLenPdf::18                  3524                       # What read queue length does an incoming req see
system.mem_ctrls3.rdQLenPdf::19                  3630                       # What read queue length does an incoming req see
system.mem_ctrls3.rdQLenPdf::20                  3722                       # What read queue length does an incoming req see
system.mem_ctrls3.rdQLenPdf::21                  3781                       # What read queue length does an incoming req see
system.mem_ctrls3.rdQLenPdf::22                  3792                       # What read queue length does an incoming req see
system.mem_ctrls3.rdQLenPdf::23                  3791                       # What read queue length does an incoming req see
system.mem_ctrls3.rdQLenPdf::24                  3766                       # What read queue length does an incoming req see
[...]
system.ruby.L2Cache_Controller.S_I.Ack::total            2                      
system.ruby.L2Cache_Controller.S_I.Ack_all |           0      0.00%      0.00% |           4     28.57%     28.57% |           1      7.14%     35.71% |           1      7.14%     42.86% |           0      0.00%     42.86% |           2     14.29%     57.14% |           0      0.00%     57.14% |           0      0.00%     57.14% |           0      0.00%     57.14% |           1      7.14%     64.29% |           1      7.14%     71.43% |           0      0.00%     71.43% |           0      0.00%     71.43% |           0      0.00%     71.43% |           1      7.14%     78.57% |           0      0.00%     78.57% |           0      0.00%     78.57% |           0      0.00%     78.57% |           1      7.14%     85.71% |           0      0.00%     85.71% |           0      0.00%     85.71% |           0      0.00%     85.71% |           0      0.00%     85.71% |           0      0.00%     85.71% |           1      7.14%     92.86% |           0      0.00%     92.86% |           0      0.00%     92.86% |           0      0.00%     92.86% |           1      7.14%    100.00% |           0      0.00%    100.00% |           0      0.00%    100.00% |           0      0.00%    100.00%
system.ruby.L2Cache_Controller.S_I.Ack_all::total           14                      
system.ruby.L2Cache_Controller.ISS.Mem_Data |       18676      7.92%      7.92% |        7079      3.00%     10.93% |        7085      3.01%     13.93% |        7030      2.98%     16.91% |        7003      2.97%     19.89% |        6982      2.96%     22.85% |        6999      2.97%     25.82% |        6994      2.97%     28.78% |        7030      2.98%     31.77% |        7032      2.98%     34.75% |        7064      3.00%     37.75% |        6988      2.96%     40.71% |        6996      2.97%     43.68% |        6993      2.97%     46.65% |        6995      2.97%     49.61% |        6959      2.95%     52.57% |        6997      2.97%     55.54% |        6972      2.96%     58.49% |        7005      2.97%     61.46% |        6984      2.96%     64.43% |        6980      2.96%     67.39% |        6967      2.96%     70.34% |        6991      2.97%     73.31% |        6985      2.96%     76.27% |        7002      2.97%     79.24% |        7004      2.97%     82.22% |        6985      2.96%     85.18% |        6963      2.95%     88.13% |        7006      2.97%     91.11% |        6986      2.96%     94.07% |        6960      2.95%     97.02% |        7018      2.98%    100.00%
system.ruby.L2Cache_Controller.ISS.Mem_Data::total       235710                      
system.ruby.L2Cache_Controller.IS.Mem_Data |         542      3.26%      3.26% |         470      2.83%      6.09% |         464      2.79%      8.89% |         465      2.80%     11.69% |         511      3.08%     14.77% |         466      2.81%     17.57% |         504      3.04%     20.61% |         528      3.18%     23.79% |         547      3.29%     27.08% |         486      2.93%     30.01% |         533      3.21%     33.22% |         566      3.41%     36.63% |         618      3.72%     40.35% |         561      3.38%     43.73% |         579      3.49%     47.21% |         523      3.15%     50.36% |         532      3.20%     53.56% |         569      3.43%     56.99% |         562      3.38%     60.38% |         509      3.07%     63.44% |         502      3.02%     66.46% |         520      3.13%     69.60% |         480      2.89%     72.49% |         468      2.82%     75.30% |         546      3.29%     78.59% |         592      3.56%     82.16% |         532      3.20%     85.36% |         479      2.88%     88.25% |         488      2.94%     91.18% |         509      3.07%     94.25% |         490      2.95%     97.20% |         465      2.80%    100.00%
system.ruby.L2Cache_Controller.IS.Mem_Data::total        16606                      
system.ruby.L2Cache_Controller.IM.L1_GETX |           4    100.00%    100.00% |           0      0.00%    100.00% |           0      0.00%    100.00% |           0      0.00%    100.00% |           0      0.00%    100.00% |           0      0.00%    100.00% |           0      0.00%    100.00% |           0      0.00%    100.00% |           0      0.00%    100.00% |           0      0.00%    100.00% |           0      0.00%    100.00% |           0      0.00%    100.00% |           0      0.00%    100.00% |           0      0.00%    100.00% |           0      0.00%    100.00% |           0      0.00%    100.00% |           0      0.00%    100.00% |           0      0.00%    100.00% |           0      0.00%    100.00% |           0      0.00%    100.00% |           0      0.00%    100.00% |           0      0.00%    100.00% |           0      0.00%    100.00% |           0      0.00%    100.00% |           0      0.00%    100.00% |           0      0.00%    100.00% |           0      0.00%    100.00% |           0      0.00%    100.00% |           0      0.00%    100.00% |           0      0.00%    100.00% |           0      0.00%    100.00% |           0      0.00%    100.00%
system.ruby.L2Cache_Controller.IM.L1_GETX::total            4                      
system.ruby.L2Cache_Controller.IM.Mem_Data |       40406      3.13%      3.13% |       40329      3.12%      6.25% |       40341      3.12%      9.38% |       40347      3.13%     12.50% |       40353      3.13%     15.63% |       40365      3.13%     18.76% |       40339      3.12%     21.88% |       40336      3.12%     25.00% |       40349      3.13%     28.13% |       40344      3.12%     31.25% |       40329      3.12%     34.38% |       40358      3.13%     37.50% |       40339      3.12%     40.63% |       40338      3.12%     43.75% |       40341      3.12%     46.88% |       40330      3.12%     50.00% |       40352      3.13%     53.13% |       40351      3.13%     56.25% |       40349      3.13%     59.38% |       40345      3.12%     62.50% |       40340      3.12%     65.63% |       40354      3.13%     68.75% |       40339      3.12%     71.88% |       40341      3.12%     75.00% |       40347      3.13%     78.13% |       40345      3.12%     81.25% |       40349      3.13%     84.38% |       40336      3.12%     87.50% |       40336      3.12%     90.63% |       40337      3.12%     93.75% |       40349      3.13%     96.88% |       40331      3.12%    100.00%
system.ruby.L2Cache_Controller.IM.Mem_Data::total      1291045                      
system.ruby.L2Cache_Controller.SS_MB.Exclusive_Unblock |           4      8.89%      8.89% |           6     13.33%     22.22% |           2      4.44%     26.67% |           6     13.33%     40.00% |           1      2.22%     42.22% |           0      0.00%     42.22% |           1      2.22%     44.44% |           0      0.00%     44.44% |           0      0.00%     44.44% |           1      2.22%     46.67% |           1      2.22%     48.89% |           0      0.00%     48.89% |           4      8.89%     57.78% |           0      0.00%     57.78% |           3      6.67%     64.44% |           0      0.00%     64.44% |           0      0.00%     64.44% |           0      0.00%     64.44% |           9     20.00%     84.44% |           0      0.00%     84.44% |           0      0.00%     84.44% |           0      0.00%     84.44% |           0      0.00%     84.44% |           0      0.00%     84.44% |           1      2.22%     86.67% |           2      4.44%     91.11% |           1      2.22%     93.33% |           1      2.22%     95.56% |           0      0.00%     95.56% |           1      2.22%     97.78% |           1      2.22%    100.00% |           0      0.00%    100.00%
system.ruby.L2Cache_Controller.SS_MB.Exclusive_Unblock::total           45                      
system.ruby.L2Cache_Controller.MT_MB.L1_PUTX |           2    100.00%    100.00% |           0      0.00%    100.00% |           0      0.00%    100.00% |           0      0.00%    100.00% |           0      0.00%    100.00% |           0      0.00%    100.00% |           0      0.00%    100.00% |           0      0.00%    100.00% |           0      0.00%    100.00% |           0      0.00%    100.00% |           0      0.00%    100.00% |           0      0.00%    100.00% |           0      0.00%    100.00% |           0      0.00%    100.00% |           0      0.00%    100.00% |           0      0.00%    100.00% |           0      0.00%    100.00% |           0      0.00%    100.00% |           0      0.00%    100.00% |           0      0.00%    100.00% |           0      0.00%    100.00% |           0      0.00%    100.00% |           0      0.00%    100.00% |           0      0.00%    100.00% |           0      0.00%    100.00% |           0      0.00%    100.00% |           0      0.00%    100.00% |           0      0.00%    100.00% |           0      0.00%    100.00% |           0      0.00%    100.00% |           0      0.00%    100.00% |           0      0.00%    100.00%
system.ruby.L2Cache_Controller.MT_MB.L1_PUTX::total            2                      
system.ruby.L2Cache_Controller.MT_MB.Exclusive_Unblock |      173294      8.49%      8.49% |       64264      3.15%     11.64% |       58761      2.88%     14.52% |       58458      2.86%     17.38% |       57801      2.83%     20.21% |       56505      2.77%     22.98% |       55009      2.69%     25.67% |       55303      2.71%     28.38% |       59171      2.90%     31.28% |       57719      2.83%     34.11% |       60645      2.97%     37.08% |       60209      2.95%     40.03% |       56862      2.79%     42.81% |       56794      2.78%     45.59% |       56448      2.77%     48.36% |       56868      2.79%     51.15% |       59134      2.90%     54.04% |       58513      2.87%     56.91% |       59886      2.93%     59.84% |       60878      2.98%     62.82% |       60907      2.98%     65.81% |       63096      3.09%     68.90% |       64326      3.15%     72.05% |       60550      2.97%     75.02% |       61100      2.99%     78.01% |       62473      3.06%     81.07% |       60798      2.98%     84.05% |       61421      3.01%     87.06% |       64098      3.14%     90.20% |       61918      3.03%     93.23% |       70025      3.43%     96.66% |       68217      3.34%    100.00%
system.ruby.L2Cache_Controller.MT_MB.Exclusive_Unblock::total      2041451                      
system.ruby.L2Cache_Controller.MT_IIB.WB_Data |           0      0.00%      0.00% |           0      0.00%      0.00% |           0      0.00%      0.00% |           0      0.00%      0.00% |           0      0.00%      0.00% |           1     50.00%     50.00% |           0      0.00%     50.00% |           0      0.00%     50.00% |           0      0.00%     50.00% |           0      0.00%     50.00% |           0      0.00%     50.00% |           0      0.00%     50.00% |           0      0.00%     50.00% |           0      0.00%     50.00% |           0      0.00%     50.00% |           0      0.00%     50.00% |           0      0.00%     50.00% |           0      0.00%     50.00% |           0      0.00%     50.00% |           0      0.00%     50.00% |           0      0.00%     50.00% |           0      0.00%     50.00% |           0      0.00%     50.00% |           0      0.00%     50.00% |           0      0.00%     50.00% |           0      0.00%     50.00% |           0      0.00%     50.00% |           0      0.00%     50.00% |           1     50.00%    100.00% |           0      0.00%    100.00% |           0      0.00%    100.00% |           0      0.00%    100.00%
system.ruby.L2Cache_Controller.MT_IIB.WB_Data::total            2                      
system.ruby.L2Cache_Controller.MT_IIB.WB_Data_clean |          21    100.00%    100.00% |           0      0.00%    100.00% |           0      0.00%    100.00% |           0      0.00%    100.00% |           0      0.00%    100.00% |           0      0.00%    100.00% |           0      0.00%    100.00% |           0      0.00%    100.00% |           0      0.00%    100.00% |           0      0.00%    100.00% |           0      0.00%    100.00% |           0      0.00%    100.00% |           0      0.00%    100.00% |           0      0.00%    100.00% |           0      0.00%    100.00% |           0      0.00%    100.00% |           0      0.00%    100.00% |           0      0.00%    100.00% |           0      0.00%    100.00% |           0      0.00%    100.00% |           0      0.00%    100.00% |           0      0.00%    100.00% |           0      0.00%    100.00% |           0      0.00%    100.00% |           0      0.00%    100.00% |           0      0.00%    100.00% |           0      0.00%    100.00% |           0      0.00%    100.00% |           0      0.00%    100.00% |           0      0.00%    100.00% |           0      0.00%    100.00% |           0      0.00%    100.00%
system.ruby.L2Cache_Controller.MT_IIB.WB_Data_clean::total           21                      
system.ruby.L2Cache_Controller.MT_SB.Unblock |          21     91.30%     91.30% |           0      0.00%     91.30% |           0      0.00%     91.30% |           0      0.00%     91.30% |           0      0.00%     91.30% |           1      4.35%     95.65% |           0      0.00%     95.65% |           0      0.00%     95.65% |           0      0.00%     95.65% |           0      0.00%     95.65% |           0      0.00%     95.65% |           0      0.00%     95.65% |           0      0.00%     95.65% |           0      0.00%     95.65% |           0      0.00%     95.65% |           0      0.00%     95.65% |           0      0.00%     95.65% |           0      0.00%     95.65% |           0      0.00%     95.65% |           0      0.00%     95.65% |           0      0.00%     95.65% |           0      0.00%     95.65% |           0      0.00%     95.65% |           0      0.00%     95.65% |           0      0.00%     95.65% |           0      0.00%     95.65% |           0      0.00%     95.65% |           0      0.00%     95.65% |           1      4.35%    100.00% |           0      0.00%    100.00% |           0      0.00%    100.00% |           0      0.00%    100.00%
system.ruby.L2Cache_Controller.MT_SB.Unblock::total           23                      
system.ruby.SimicsNetworkPortInterface_Controller.MessageSend |      121717     21.43%     21.43% |      284005     50.00%     71.43% |       20489      3.61%     75.04% |       21376      3.76%     78.80% |       20127      3.54%     82.34% |       21102      3.72%     86.06% |       20094      3.54%     89.60% |       21393      3.77%     93.36% |       18678      3.29%     96.65% |       19029      3.35%    100.00% |           0      0.00%    100.00% |           0      0.00%    100.00% |           0      0.00%    100.00% |           0      0.00%    100.00% |           0      0.00%    100.00% |           0      0.00%    100.00% |           0      0.00%    100.00% |           0      0.00%    100.00% |           0      0.00%    100.00% |           0      0.00%    100.00% |           0      0.00%    100.00% |           0      0.00%    100.00% |           0      0.00%    100.00% |           0      0.00%    100.00% |           0      0.00%    100.00% |           0      0.00%    100.00% |           0      0.00%    100.00% |           0      0.00%    100.00% |           0      0.00%    100.00% |           0      0.00%    100.00% |           0      0.00%    100.00% |           0      0.00%    100.00%
system.ruby.SimicsNetworkPortInterface_Controller.MessageSend::total       568010                      
system.ruby.SimicsNetworkPortInterface_Controller.MessageRecv |      121717     21.43%     21.43% |      284005     50.00%     71.43% |       20489      3.61%     75.04% |       21376      3.76%     78.80% |       20127      3.54%     82.34% |       21102      3.72%     86.06% |       20094      3.54%     89.60% |       21393      3.77%     93.36% |       18678      3.29%     96.65% |       19029      3.35%    100.00% |           0      0.00%    100.00% |           0      0.00%    100.00% |           0      0.00%    100.00% |           0      0.00%    100.00% |           0      0.00%    100.00% |           0      0.00%    100.00% |           0      0.00%    100.00% |           0      0.00%    100.00% |           0      0.00%    100.00% |           0      0.00%    100.00% |           0      0.00%    100.00% |           0      0.00%    100.00% |           0      0.00%    100.00% |           0      0.00%    100.00% |           0      0.00%    100.00% |           0      0.00%    100.00% |           0      0.00%    100.00% |           0      0.00%    100.00% |           0      0.00%    100.00% |           0      0.00%    100.00% |           0      0.00%    100.00% |           0      0.00%    100.00%
system.ruby.SimicsNetworkPortInterface_Controller.MessageRecv::total       568010                      
system.ruby.SimicsNetworkPortInterface_Controller.A.MessageSend |      121717     21.43%     21.43% |      284005     50.00%     71.43% |       20489      3.61%     75.04% |       21376      3.76%     78.80% |       20127      3.54%     82.34% |       21102      3.72%     86.06% |       20094      3.54%     89.60% |       21393      3.77%     93.36% |       18678      3.29%     96.65% |       19029      3.35%    100.00% |           0      0.00%    100.00% |           0      0.00%    100.00% |           0      0.00%    100.00% |           0      0.00%    100.00% |           0      0.00%    100.00% |           0      0.00%    100.00% |           0      0.00%    100.00% |           0      0.00%    100.00% |           0      0.00%    100.00% |           0      0.00%    100.00% |           0      0.00%    100.00% |           0      0.00%    100.00% |           0      0.00%    100.00% |           0      0.00%    100.00% |           0      0.00%    100.00% |           0      0.00%    100.00% |           0      0.00%    100.00% |           0      0.00%    100.00% |           0      0.00%    100.00% |           0      0.00%    100.00% |           0      0.00%    100.00% |           0      0.00%    100.00%
system.ruby.SimicsNetworkPortInterface_Controller.A.MessageSend::total       568010                      
system.ruby.SimicsNetworkPortInterface_Controller.A.MessageRecv |      121717     21.43%     21.43% |      284005     50.00%     71.43% |       20489      3.61%     75.04% |       21376      3.76%     78.80% |       20127      3.54%     82.34% |       21102      3.72%     86.06% |       20094      3.54%     89.60% |       21393      3.77%     93.36% |       18678      3.29%     96.65% |       19029      3.35%    100.00% |           0      0.00%    100.00% |           0      0.00%    100.00% |           0      0.00%    100.00% |           0      0.00%    100.00% |           0      0.00%    100.00% |           0      0.00%    100.00% |           0      0.00%    100.00% |           0      0.00%    100.00% |           0      0.00%    100.00% |           0      0.00%    100.00% |           0      0.00%    100.00% |           0      0.00%    100.00% |           0      0.00%    100.00% |           0      0.00%    100.00% |           0      0.00%    100.00% |           0      0.00%    100.00% |           0      0.00%    100.00% |           0      0.00%    100.00% |           0      0.00%    100.00% |           0      0.00%    100.00% |           0      0.00%    100.00% |           0      0.00%    100.00%
system.ruby.SimicsNetworkPortInterface_Controller.A.MessageRecv::total       568010                      
system.switch_cpus.kern.inst.arm                    0                       # number of arm instructions executed
system.switch_cpus.kern.inst.quiesce                0                       # number of quiesce instructions executed

---------- End Simulation Statistics   ----------
