
---------- Begin Simulation Statistics ----------
sim_seconds                                  0.038824                       # Number of seconds simulated
sim_ticks                                 38824095000                       # Number of ticks simulated
final_tick                               5214992173500                       # Number of ticks from beginning of simulation (restored from checkpoints and never reset)
sim_freq                                 1000000000000                       # Frequency of simulated ticks
host_inst_rate                                  88385                       # Simulator instruction rate (inst/s)
host_op_rate                                   155630                       # Simulator op (including micro ops) rate (op/s)
host_tick_rate                              188867217                       # Simulator tick rate (ticks/s)
host_mem_usage                                3225048                       # Number of bytes of host memory used
host_seconds                                   205.56                       # Real time elapsed on the host
sim_insts                                    18168596                       # Number of instructions simulated
sim_ops                                      31991764                       # Number of ops (including micro ops) simulated
system.voltage_domain.voltage                       1                       # Voltage in Volts
system.clk_domain.clock                           500                       # Clock period in ticks
system.mem_ctrls0.bytes_read::ruby.dir_cntrl0      4688768                       # Number of bytes read from this memory
system.mem_ctrls0.bytes_read::total           4688768                       # Number of bytes read from this memory
system.mem_ctrls0.bytes_written::ruby.dir_cntrl0      2862144                       # Number of bytes written to this memory
system.mem_ctrls0.bytes_written::total        2862144                       # Number of bytes written to this memory
system.mem_ctrls0.num_reads::ruby.dir_cntrl0        73262                       # Number of read requests responded to by this memory
system.mem_ctrls0.num_reads::total              73262                       # Number of read requests responded to by this memory
system.mem_ctrls0.num_writes::ruby.dir_cntrl0        44721                       # Number of write requests responded to by this memory
system.mem_ctrls0.num_writes::total             44721                       # Number of write requests responded to by this memory
system.mem_ctrls0.bw_read::ruby.dir_cntrl0    120769538                       # Total read bandwidth from this memory (bytes/s)
system.mem_ctrls0.bw_read::total            120769538                       # Total read bandwidth from this memory (bytes/s)
system.mem_ctrls0.bw_write::ruby.dir_cntrl0     73720817                       # Write bandwidth from this memory (bytes/s)
system.mem_ctrls0.bw_write::total            73720817                       # Write bandwidth from this memory (bytes/s)
system.mem_ctrls0.bw_total::ruby.dir_cntrl0    194490355                       # Total bandwidth to/from this memory (bytes/s)
system.mem_ctrls0.bw_total::total           194490355                       # Total bandwidth to/from this memory (bytes/s)
system.mem_ctrls0.readReqs                      73262                       # Number of read requests accepted
system.mem_ctrls0.writeReqs                     44721                       # Number of write requests accepted
system.mem_ctrls0.readBursts                    73262                       # Number of DRAM read bursts, including those serviced by the write queue
system.mem_ctrls0.writeBursts                   44721                       # Number of DRAM write bursts, including those merged in the write queue
system.mem_ctrls0.bytesReadDRAM               4687936                       # Total number of bytes read from DRAM
system.mem_ctrls0.bytesReadWrQ                    832                       # Total number of bytes read from write queue
system.mem_ctrls0.bytesWritten                2862080                       # Total number of bytes written to DRAM
system.mem_ctrls0.bytesReadSys                4688768                       # Total read bytes from the system interface side
system.mem_ctrls0.bytesWrittenSys             2862144                       # Total written bytes from the system interface side
system.mem_ctrls0.servicedByWrQ                    13                       # Number of DRAM read bursts serviced by the write queue
system.mem_ctrls0.mergedWrBursts                    0                       # Number of DRAM write bursts merged with an existing one
system.mem_ctrls0.neitherReadNorWriteReqs            0                       # Number of requests that are neither read nor write
system.mem_ctrls0.perBankRdBursts::0             4426                       # Per bank write bursts
system.mem_ctrls0.perBankRdBursts::1             4891                       # Per bank write bursts
system.mem_ctrls0.perBankRdBursts::2             4541                       # Per bank write bursts
system.mem_ctrls0.perBankRdBursts::3             4886                       # Per bank write bursts
system.mem_ctrls0.perBankRdBursts::4             4634                       # Per bank write bursts
system.mem_ctrls0.perBankRdBursts::5             4726                       # Per bank write bursts
system.mem_ctrls0.perBankRdBursts::6             4552                       # Per bank write bursts
system.mem_ctrls0.perBankRdBursts::7             4523                       # Per bank write bursts
system.mem_ctrls0.perBankRdBursts::8             4505                       # Per bank write bursts
system.mem_ctrls0.perBankRdBursts::9             4793                       # Per bank write bursts
system.mem_ctrls0.perBankRdBursts::10            4517                       # Per bank write bursts
system.mem_ctrls0.perBankRdBursts::11            4732                       # Per bank write bursts
system.mem_ctrls0.perBankRdBursts::12            4351                       # Per bank write bursts
system.mem_ctrls0.perBankRdBursts::13            4197                       # Per bank write bursts
system.mem_ctrls0.perBankRdBursts::14            4469                       # Per bank write bursts
system.mem_ctrls0.perBankRdBursts::15            4506                       # Per bank write bursts
system.mem_ctrls0.perBankWrBursts::0             2818                       # Per bank write bursts
system.mem_ctrls0.perBankWrBursts::1             2810                       # Per bank write bursts
system.mem_ctrls0.perBankWrBursts::2             2793                       # Per bank write bursts
system.mem_ctrls0.perBankWrBursts::3             2882                       # Per bank write bursts
system.mem_ctrls0.perBankWrBursts::4             2801                       # Per bank write bursts
system.mem_ctrls0.perBankWrBursts::5             2939                       # Per bank write bursts
system.mem_ctrls0.perBankWrBursts::6             2769                       # Per bank write bursts
system.mem_ctrls0.perBankWrBursts::7             2846                       # Per bank write bursts
system.mem_ctrls0.perBankWrBursts::8             2739                       # Per bank write bursts
system.mem_ctrls0.perBankWrBursts::9             2919                       # Per bank write bursts
system.mem_ctrls0.perBankWrBursts::10            2766                       # Per bank write bursts
system.mem_ctrls0.perBankWrBursts::11            2698                       # Per bank write bursts
system.mem_ctrls0.perBankWrBursts::12            2633                       # Per bank write bursts
system.mem_ctrls0.perBankWrBursts::13            2670                       # Per bank write bursts
system.mem_ctrls0.perBankWrBursts::14            2876                       # Per bank write bursts
system.mem_ctrls0.perBankWrBursts::15            2761                       # Per bank write bursts
system.mem_ctrls0.numRdRetry                      359                       # Number of times read queue was full causing retry
system.mem_ctrls0.numWrRetry                     2210                       # Number of times write queue was full causing retry
system.mem_ctrls0.totGap                  38823582000                       # Total gap between requests
system.mem_ctrls0.readPktSize::0                    0                       # Read request sizes (log2)
system.mem_ctrls0.readPktSize::1                    0                       # Read request sizes (log2)
system.mem_ctrls0.readPktSize::2                    0                       # Read request sizes (log2)
system.mem_ctrls0.readPktSize::3                    0                       # Read request sizes (log2)
system.mem_ctrls0.readPktSize::4                    0                       # Read request sizes (log2)
system.mem_ctrls0.readPktSize::5                    0                       # Read request sizes (log2)
system.mem_ctrls0.readPktSize::6                73262                       # Read request sizes (log2)
system.mem_ctrls0.writePktSize::0                   0                       # Write request sizes (log2)
system.mem_ctrls0.writePktSize::1                   0                       # Write request sizes (log2)
system.mem_ctrls0.writePktSize::2                   0                       # Write request sizes (log2)
system.mem_ctrls0.writePktSize::3                   0                       # Write request sizes (log2)
system.mem_ctrls0.writePktSize::4                   0                       # Write request sizes (log2)
system.mem_ctrls0.writePktSize::5                   0                       # Write request sizes (log2)
system.mem_ctrls0.writePktSize::6               44721                       # Write request sizes (log2)
system.mem_ctrls0.rdQLenPdf::0                  45607                       # What read queue length does an incoming req see
system.mem_ctrls0.rdQLenPdf::1                   4226                       # What read queue length does an incoming req see
system.mem_ctrls0.rdQLenPdf::2                   3542                       # What read queue length does an incoming req see
system.mem_ctrls0.rdQLenPdf::3                   2830                       # What read queue length does an incoming req see
system.mem_ctrls0.rdQLenPdf::4                   2371                       # What read queue length does an incoming req see
system.mem_ctrls0.rdQLenPdf::5                   1917                       # What read queue length does an incoming req see
system.mem_ctrls0.rdQLenPdf::6                   1563                       # What read queue length does an incoming req see
system.mem_ctrls0.rdQLenPdf::7                   1357                       # What read queue length does an incoming req see
system.mem_ctrls0.rdQLenPdf::8                   1148                       # What read queue length does an incoming req see
system.mem_ctrls0.rdQLenPdf::9                   1009                       # What read queue length does an incoming req see
system.mem_ctrls0.rdQLenPdf::10                   878                       # What read queue length does an incoming req see
system.mem_ctrls0.rdQLenPdf::11                   748                       # What read queue length does an incoming req see
system.mem_ctrls0.rdQLenPdf::12                   735                       # What read queue length does an incoming req see
system.mem_ctrls0.rdQLenPdf::13                   627                       # What read queue length does an incoming req see
system.mem_ctrls0.rdQLenPdf::14                   556                       # What read queue length does an incoming req see
system.mem_ctrls0.rdQLenPdf::15                   447                       # What read queue length does an incoming req see
system.mem_ctrls0.rdQLenPdf::16                   384                       # What read queue length does an incoming req see
system.mem_ctrls0.rdQLenPdf::17                   367                       # What read queue length does an incoming req see
system.mem_ctrls0.rdQLenPdf::18                   296                       # What read queue length does an incoming req see
system.mem_ctrls0.rdQLenPdf::19                   286                       # What read queue length does an incoming req see
system.mem_ctrls0.rdQLenPdf::20                   259                       # What read queue length does an incoming req see
system.mem_ctrls0.rdQLenPdf::21                   218                       # What read queue length does an incoming req see
system.mem_ctrls0.rdQLenPdf::22                   213                       # What read queue length does an incoming req see
system.mem_ctrls0.rdQLenPdf::23                   192                       # What read queue length does an incoming req see
system.mem_ctrls0.rdQLenPdf::24                   173                       # What read queue length does an incoming req see
system.mem_ctrls0.rdQLenPdf::25                   155                       # What read queue length does an incoming req see
system.mem_ctrls0.rdQLenPdf::26                   149                       # What read queue length does an incoming req see
system.mem_ctrls0.rdQLenPdf::27                   156                       # What read queue length does an incoming req see
system.mem_ctrls0.rdQLenPdf::28                   131                       # What read queue length does an incoming req see
system.mem_ctrls0.rdQLenPdf::29                   124                       # What read queue length does an incoming req see
system.mem_ctrls0.rdQLenPdf::30                   113                       # What read queue length does an incoming req see
system.mem_ctrls0.rdQLenPdf::31                   472                       # What read queue length does an incoming req see
system.mem_ctrls0.wrQLenPdf::0                   7728                       # What write queue length does an incoming req see
system.mem_ctrls0.wrQLenPdf::1                   7986                       # What write queue length does an incoming req see
system.mem_ctrls0.wrQLenPdf::2                   8153                       # What write queue length does an incoming req see
system.mem_ctrls0.wrQLenPdf::3                   8229                       # What write queue length does an incoming req see
system.mem_ctrls0.wrQLenPdf::4                   8333                       # What write queue length does an incoming req see
system.mem_ctrls0.wrQLenPdf::5                    793                       # What write queue length does an incoming req see
system.mem_ctrls0.wrQLenPdf::6                    701                       # What write queue length does an incoming req see
system.mem_ctrls0.wrQLenPdf::7                   2798                       # What write queue length does an incoming req see
system.mem_ctrls0.bytesPerActivate::samples        32360                       # Bytes accessed per row activation
system.mem_ctrls0.bytesPerActivate::mean   233.299382                       # Bytes accessed per row activation
system.mem_ctrls0.bytesPerActivate::gmean   157.381177                       # Bytes accessed per row activation
system.mem_ctrls0.bytesPerActivate::stdev   234.782073                       # Bytes accessed per row activation
system.mem_ctrls0.bytesPerActivate::0-127        12583     38.88%     38.88% # Bytes accessed per row activation
system.mem_ctrls0.bytesPerActivate::128-255         7270     22.47%     61.35% # Bytes accessed per row activation
system.mem_ctrls0.bytesPerActivate::256-383         8071     24.94%     86.29% # Bytes accessed per row activation
system.mem_ctrls0.bytesPerActivate::384-511         1026      3.17%     89.46% # Bytes accessed per row activation
system.mem_ctrls0.bytesPerActivate::512-639          754      2.33%     91.79% # Bytes accessed per row activation
system.mem_ctrls0.bytesPerActivate::640-767          564      1.74%     93.54% # Bytes accessed per row activation
system.mem_ctrls0.bytesPerActivate::768-895          442      1.37%     94.90% # Bytes accessed per row activation
system.mem_ctrls0.bytesPerActivate::896-1023          433      1.34%     96.24% # Bytes accessed per row activation
system.mem_ctrls0.bytesPerActivate::1024-1151         1217      3.76%    100.00% # Bytes accessed per row activation
system.mem_ctrls0.bytesPerActivate::total        32360                       # Bytes accessed per row activation
system.mem_ctrls0.rdPerTurnAround::samples         7961                       # Reads before turning the bus around for writes
system.mem_ctrls0.rdPerTurnAround::mean      9.199221                       # Reads before turning the bus around for writes
system.mem_ctrls0.rdPerTurnAround::stdev    46.004763                       # Reads before turning the bus around for writes
system.mem_ctrls0.rdPerTurnAround::0-127         7954     99.91%     99.91% # Reads before turning the bus around for writes
system.mem_ctrls0.rdPerTurnAround::128-255            6      0.08%     99.99% # Reads before turning the bus around for writes
system.mem_ctrls0.rdPerTurnAround::3968-4095            1      0.01%    100.00% # Reads before turning the bus around for writes
system.mem_ctrls0.rdPerTurnAround::total         7961                       # Reads before turning the bus around for writes
system.mem_ctrls0.wrPerTurnAround::samples         7961                       # Writes before turning the bus around for reads
system.mem_ctrls0.wrPerTurnAround::mean      5.617385                       # Writes before turning the bus around for reads
system.mem_ctrls0.wrPerTurnAround::gmean     5.386403                       # Writes before turning the bus around for reads
system.mem_ctrls0.wrPerTurnAround::stdev     2.225666                       # Writes before turning the bus around for reads
system.mem_ctrls0.wrPerTurnAround::4-7           7447     93.54%     93.54% # Writes before turning the bus around for reads
system.mem_ctrls0.wrPerTurnAround::8-11           147      1.85%     95.39% # Writes before turning the bus around for reads
system.mem_ctrls0.wrPerTurnAround::12-15          108      1.36%     96.75% # Writes before turning the bus around for reads
system.mem_ctrls0.wrPerTurnAround::16-19          259      3.25%    100.00% # Writes before turning the bus around for reads
system.mem_ctrls0.wrPerTurnAround::total         7961                       # Writes before turning the bus around for reads
system.mem_ctrls0.totQLat                  3424653186                       # Total ticks spent queuing
system.mem_ctrls0.totMemAccLat             4798071936                       # Total ticks spent from burst creation until serviced by the DRAM
system.mem_ctrls0.totBusLat                 366245000                       # Total ticks spent in databus transfers
system.mem_ctrls0.avgQLat                    46753.58                       # Average queueing delay per DRAM burst
system.mem_ctrls0.avgBusLat                   5000.00                       # Average bus latency per DRAM burst
system.mem_ctrls0.avgMemAccLat               65503.58                       # Average memory access latency per DRAM burst
system.mem_ctrls0.avgRdBW                      120.75                       # Average DRAM read bandwidth in MiByte/s
system.mem_ctrls0.avgWrBW                       73.72                       # Average achieved write bandwidth in MiByte/s
system.mem_ctrls0.avgRdBWSys                   120.77                       # Average system read bandwidth in MiByte/s
system.mem_ctrls0.avgWrBWSys                    73.72                       # Average system write bandwidth in MiByte/s
system.mem_ctrls0.peakBW                     12800.00                       # Theoretical peak bandwidth in MiByte/s
system.mem_ctrls0.busUtil                        1.52                       # Data bus utilization in percentage
system.mem_ctrls0.busUtilRead                    0.94                       # Data bus utilization in percentage for reads
system.mem_ctrls0.busUtilWrite                   0.58                       # Data bus utilization in percentage for writes
system.mem_ctrls0.avgRdQLen                      1.12                       # Average read queue length when enqueuing
system.mem_ctrls0.avgWrQLen                      2.87                       # Average write queue length when enqueuing
system.mem_ctrls0.readRowHits                   56200                       # Number of row buffer hits during reads
system.mem_ctrls0.writeRowHits                  29406                       # Number of row buffer hits during writes
system.mem_ctrls0.readRowHitRate                76.72                       # Row buffer hit rate for reads
system.mem_ctrls0.writeRowHitRate               65.75                       # Row buffer hit rate for writes
system.mem_ctrls0.avgGap                    329060.81                       # Average gap between requests
system.mem_ctrls0.pageHitRate                   72.57                       # Row buffer hit rate, read and write combined
system.mem_ctrls0.memoryStateTime::IDLE   10429338000                       # Time in different power states
system.mem_ctrls0.memoryStateTime::REF     1296360000                       # Time in different power states
system.mem_ctrls0.memoryStateTime::PRE_PDN            0                       # Time in different power states
system.mem_ctrls0.memoryStateTime::ACT    27096855000                       # Time in different power states
system.mem_ctrls0.memoryStateTime::ACT_PDN            0                       # Time in different power states
system.mem_ctrls0.actEnergy::0              126418320                       # Energy for activate commands per rank (pJ)
system.mem_ctrls0.actEnergy::1              118223280                       # Energy for activate commands per rank (pJ)
system.mem_ctrls0.preEnergy::0               68978250                       # Energy for precharge commands per rank (pJ)
system.mem_ctrls0.preEnergy::1               64506750                       # Energy for precharge commands per rank (pJ)
system.mem_ctrls0.readEnergy::0             289996200                       # Energy for read commands per rank (pJ)
system.mem_ctrls0.readEnergy::1             281291400                       # Energy for read commands per rank (pJ)
system.mem_ctrls0.writeEnergy::0            146823840                       # Energy for write commands per rank (pJ)
system.mem_ctrls0.writeEnergy::1            142961760                       # Energy for write commands per rank (pJ)
system.mem_ctrls0.refreshEnergy::0         2535680160                       # Energy for refresh commands per rank (pJ)
system.mem_ctrls0.refreshEnergy::1         2535680160                       # Energy for refresh commands per rank (pJ)
system.mem_ctrls0.actBackEnergy::0        14172115770                       # Energy for active background per rank (pJ)
system.mem_ctrls0.actBackEnergy::1        13809387150                       # Energy for active background per rank (pJ)
system.mem_ctrls0.preBackEnergy::0        10861843500                       # Energy for precharge background per rank (pJ)
system.mem_ctrls0.preBackEnergy::1        11180026500                       # Energy for precharge background per rank (pJ)
system.mem_ctrls0.totalEnergy::0          28201856040                       # Total energy per rank (pJ)
system.mem_ctrls0.totalEnergy::1          28132077000                       # Total energy per rank (pJ)
system.mem_ctrls0.averagePower::0          726.429956                       # Core power per rank (mW)
system.mem_ctrls0.averagePower::1          724.632572                       # Core power per rank (mW)
system.mem_ctrls1.bytes_read::ruby.dir_cntrl1      4564288                       # Number of bytes read from this memory
system.mem_ctrls1.bytes_read::total           4564288                       # Number of bytes read from this memory
system.mem_ctrls1.bytes_written::ruby.dir_cntrl1      2746624                       # Number of bytes written to this memory
system.mem_ctrls1.bytes_written::total        2746624                       # Number of bytes written to this memory
system.mem_ctrls1.num_reads::ruby.dir_cntrl1        71317                       # Number of read requests responded to by this memory
system.mem_ctrls1.num_reads::total              71317                       # Number of read requests responded to by this memory
system.mem_ctrls1.num_writes::ruby.dir_cntrl1        42916                       # Number of write requests responded to by this memory
system.mem_ctrls1.num_writes::total             42916                       # Number of write requests responded to by this memory
system.mem_ctrls1.bw_read::ruby.dir_cntrl1    117563281                       # Total read bandwidth from this memory (bytes/s)
system.mem_ctrls1.bw_read::total            117563281                       # Total read bandwidth from this memory (bytes/s)
system.mem_ctrls1.bw_write::ruby.dir_cntrl1     70745345                       # Write bandwidth from this memory (bytes/s)
system.mem_ctrls1.bw_write::total            70745345                       # Write bandwidth from this memory (bytes/s)
system.mem_ctrls1.bw_total::ruby.dir_cntrl1    188308626                       # Total bandwidth to/from this memory (bytes/s)
system.mem_ctrls1.bw_total::total           188308626                       # Total bandwidth to/from this memory (bytes/s)
system.mem_ctrls1.readReqs                      71317                       # Number of read requests accepted
system.mem_ctrls1.writeReqs                     42916                       # Number of write requests accepted
system.mem_ctrls1.readBursts                    71317                       # Number of DRAM read bursts, including those serviced by the write queue
system.mem_ctrls1.writeBursts                   42916                       # Number of DRAM write bursts, including those merged in the write queue
system.mem_ctrls1.bytesReadDRAM               4563328                       # Total number of bytes read from DRAM
system.mem_ctrls1.bytesReadWrQ                    960                       # Total number of bytes read from write queue
system.mem_ctrls1.bytesWritten                2746432                       # Total number of bytes written to DRAM
system.mem_ctrls1.bytesReadSys                4564288                       # Total read bytes from the system interface side
system.mem_ctrls1.bytesWrittenSys             2746624                       # Total written bytes from the system interface side
system.mem_ctrls1.servicedByWrQ                    15                       # Number of DRAM read bursts serviced by the write queue
system.mem_ctrls1.mergedWrBursts                    0                       # Number of DRAM write bursts merged with an existing one
system.mem_ctrls1.neitherReadNorWriteReqs            0                       # Number of requests that are neither read nor write
system.mem_ctrls1.perBankRdBursts::0             4309                       # Per bank write bursts
system.mem_ctrls1.perBankRdBursts::1             4752                       # Per bank write bursts
system.mem_ctrls1.perBankRdBursts::2             4420                       # Per bank write bursts
system.mem_ctrls1.perBankRdBursts::3             4767                       # Per bank write bursts
system.mem_ctrls1.perBankRdBursts::4             4524                       # Per bank write bursts
system.mem_ctrls1.perBankRdBursts::5             4631                       # Per bank write bursts
system.mem_ctrls1.perBankRdBursts::6             4426                       # Per bank write bursts
system.mem_ctrls1.perBankRdBursts::7             4426                       # Per bank write bursts
system.mem_ctrls1.perBankRdBursts::8             4377                       # Per bank write bursts
system.mem_ctrls1.perBankRdBursts::9             4671                       # Per bank write bursts
system.mem_ctrls1.perBankRdBursts::10            4400                       # Per bank write bursts
system.mem_ctrls1.perBankRdBursts::11            4614                       # Per bank write bursts
system.mem_ctrls1.perBankRdBursts::12            4228                       # Per bank write bursts
system.mem_ctrls1.perBankRdBursts::13            4084                       # Per bank write bursts
system.mem_ctrls1.perBankRdBursts::14            4274                       # Per bank write bursts
system.mem_ctrls1.perBankRdBursts::15            4399                       # Per bank write bursts
system.mem_ctrls1.perBankWrBursts::0             2710                       # Per bank write bursts
system.mem_ctrls1.perBankWrBursts::1             2714                       # Per bank write bursts
system.mem_ctrls1.perBankWrBursts::2             2691                       # Per bank write bursts
system.mem_ctrls1.perBankWrBursts::3             2773                       # Per bank write bursts
system.mem_ctrls1.perBankWrBursts::4             2699                       # Per bank write bursts
system.mem_ctrls1.perBankWrBursts::5             2830                       # Per bank write bursts
system.mem_ctrls1.perBankWrBursts::6             2643                       # Per bank write bursts
system.mem_ctrls1.perBankWrBursts::7             2732                       # Per bank write bursts
system.mem_ctrls1.perBankWrBursts::8             2629                       # Per bank write bursts
system.mem_ctrls1.perBankWrBursts::9             2805                       # Per bank write bursts
system.mem_ctrls1.perBankWrBursts::10            2661                       # Per bank write bursts
system.mem_ctrls1.perBankWrBursts::11            2586                       # Per bank write bursts
system.mem_ctrls1.perBankWrBursts::12            2527                       # Per bank write bursts
system.mem_ctrls1.perBankWrBursts::13            2553                       # Per bank write bursts
system.mem_ctrls1.perBankWrBursts::14            2708                       # Per bank write bursts
system.mem_ctrls1.perBankWrBursts::15            2652                       # Per bank write bursts
system.mem_ctrls1.numRdRetry                      367                       # Number of times read queue was full causing retry
system.mem_ctrls1.numWrRetry                     2114                       # Number of times write queue was full causing retry
system.mem_ctrls1.totGap                  38823330500                       # Total gap between requests
system.mem_ctrls1.readPktSize::0                    0                       # Read request sizes (log2)
system.mem_ctrls1.readPktSize::1                    0                       # Read request sizes (log2)
system.mem_ctrls1.readPktSize::2                    0                       # Read request sizes (log2)
system.mem_ctrls1.readPktSize::3                    0                       # Read request sizes (log2)
system.mem_ctrls1.readPktSize::4                    0                       # Read request sizes (log2)
system.mem_ctrls1.readPktSize::5                    0                       # Read request sizes (log2)
system.mem_ctrls1.readPktSize::6                71317                       # Read request sizes (log2)
system.mem_ctrls1.writePktSize::0                   0                       # Write request sizes (log2)
system.mem_ctrls1.writePktSize::1                   0                       # Write request sizes (log2)
system.mem_ctrls1.writePktSize::2                   0                       # Write request sizes (log2)
system.mem_ctrls1.writePktSize::3                   0                       # Write request sizes (log2)
system.mem_ctrls1.writePktSize::4                   0                       # Write request sizes (log2)
system.mem_ctrls1.writePktSize::5                   0                       # Write request sizes (log2)
system.mem_ctrls1.writePktSize::6               42916                       # Write request sizes (log2)
system.mem_ctrls1.rdQLenPdf::0                  44756                       # What read queue length does an incoming req see
system.mem_ctrls1.rdQLenPdf::1                   3586                       # What read queue length does an incoming req see
system.mem_ctrls1.rdQLenPdf::2                   3133                       # What read queue length does an incoming req see
system.mem_ctrls1.rdQLenPdf::3                   2846                       # What read queue length does an incoming req see
system.mem_ctrls1.rdQLenPdf::4                   2369                       # What read queue length does an incoming req see
system.mem_ctrls1.rdQLenPdf::5                   1917                       # What read queue length does an incoming req see
system.mem_ctrls1.rdQLenPdf::6                   1638                       # What read queue length does an incoming req see
system.mem_ctrls1.rdQLenPdf::7                   1429                       # What read queue length does an incoming req see
system.mem_ctrls1.rdQLenPdf::8                   1207                       # What read queue length does an incoming req see
system.mem_ctrls1.rdQLenPdf::9                   1054                       # What read queue length does an incoming req see
system.mem_ctrls1.rdQLenPdf::10                   902                       # What read queue length does an incoming req see
system.mem_ctrls1.rdQLenPdf::11                   767                       # What read queue length does an incoming req see
system.mem_ctrls1.rdQLenPdf::12                   642                       # What read queue length does an incoming req see
system.mem_ctrls1.rdQLenPdf::13                   555                       # What read queue length does an incoming req see
system.mem_ctrls1.rdQLenPdf::14                   497                       # What read queue length does an incoming req see
system.mem_ctrls1.rdQLenPdf::15                   429                       # What read queue length does an incoming req see
system.mem_ctrls1.rdQLenPdf::16                   408                       # What read queue length does an incoming req see
system.mem_ctrls1.rdQLenPdf::17                   346                       # What read queue length does an incoming req see
system.mem_ctrls1.rdQLenPdf::18                   296                       # What read queue length does an incoming req see
system.mem_ctrls1.rdQLenPdf::19                   280                       # What read queue length does an incoming req see
system.mem_ctrls1.rdQLenPdf::20                   236                       # What read queue length does an incoming req see
system.mem_ctrls1.rdQLenPdf::21                   216                       # What read queue length does an incoming req see
system.mem_ctrls1.rdQLenPdf::22                   190                       # What read queue length does an incoming req see
system.mem_ctrls1.rdQLenPdf::23                   168                       # What read queue length does an incoming req see
system.mem_ctrls1.rdQLenPdf::24                   160                       # What read queue length does an incoming req see
system.mem_ctrls1.rdQLenPdf::25                   149                       # What read queue length does an incoming req see
system.mem_ctrls1.rdQLenPdf::26                   138                       # What read queue length does an incoming req see
system.mem_ctrls1.rdQLenPdf::27                   135                       # What read queue length does an incoming req see
system.mem_ctrls1.rdQLenPdf::28                   135                       # What read queue length does an incoming req see
system.mem_ctrls1.rdQLenPdf::29                   127                       # What read queue length does an incoming req see
system.mem_ctrls1.rdQLenPdf::30                   103                       # What read queue length does an incoming req see
system.mem_ctrls1.rdQLenPdf::31                   488                       # What read queue length does an incoming req see
system.mem_ctrls1.wrQLenPdf::0                   7421                       # What write queue length does an incoming req see
system.mem_ctrls1.wrQLenPdf::1                   7613                       # What write queue length does an incoming req see
system.mem_ctrls1.wrQLenPdf::2                   7773                       # What write queue length does an incoming req see
system.mem_ctrls1.wrQLenPdf::3                   7893                       # What write queue length does an incoming req see
system.mem_ctrls1.wrQLenPdf::4                   7962                       # What write queue length does an incoming req see
system.mem_ctrls1.wrQLenPdf::5                    736                       # What write queue length does an incoming req see
system.mem_ctrls1.wrQLenPdf::6                    733                       # What write queue length does an incoming req see
system.mem_ctrls1.wrQLenPdf::7                   2785                       # What write queue length does an incoming req see
system.mem_ctrls1.bytesPerActivate::samples        28578                       # Bytes accessed per row activation
system.mem_ctrls1.bytesPerActivate::mean   255.758136                       # Bytes accessed per row activation
system.mem_ctrls1.bytesPerActivate::gmean   176.095948                       # Bytes accessed per row activation
system.mem_ctrls1.bytesPerActivate::stdev   240.934476                       # Bytes accessed per row activation
system.mem_ctrls1.bytesPerActivate::0-127         9261     32.41%     32.41% # Bytes accessed per row activation
system.mem_ctrls1.bytesPerActivate::128-255         6643     23.25%     55.65% # Bytes accessed per row activation
system.mem_ctrls1.bytesPerActivate::256-383         8000     27.99%     83.64% # Bytes accessed per row activation
system.mem_ctrls1.bytesPerActivate::384-511         1209      4.23%     87.88% # Bytes accessed per row activation
system.mem_ctrls1.bytesPerActivate::512-639          869      3.04%     90.92% # Bytes accessed per row activation
system.mem_ctrls1.bytesPerActivate::640-767          531      1.86%     92.77% # Bytes accessed per row activation
system.mem_ctrls1.bytesPerActivate::768-895          453      1.59%     94.36% # Bytes accessed per row activation
system.mem_ctrls1.bytesPerActivate::896-1023          437      1.53%     95.89% # Bytes accessed per row activation
system.mem_ctrls1.bytesPerActivate::1024-1151         1175      4.11%    100.00% # Bytes accessed per row activation
system.mem_ctrls1.bytesPerActivate::total        28578                       # Bytes accessed per row activation
system.mem_ctrls1.rdPerTurnAround::samples         7640                       # Reads before turning the bus around for writes
system.mem_ctrls1.rdPerTurnAround::mean      9.328796                       # Reads before turning the bus around for writes
system.mem_ctrls1.rdPerTurnAround::stdev    37.411714                       # Reads before turning the bus around for writes
system.mem_ctrls1.rdPerTurnAround::0-127         7632     99.90%     99.90% # Reads before turning the bus around for writes
system.mem_ctrls1.rdPerTurnAround::128-255            6      0.08%     99.97% # Reads before turning the bus around for writes
system.mem_ctrls1.rdPerTurnAround::1152-1279            1      0.01%     99.99% # Reads before turning the bus around for writes
system.mem_ctrls1.rdPerTurnAround::2816-2943            1      0.01%    100.00% # Reads before turning the bus around for writes
system.mem_ctrls1.rdPerTurnAround::total         7640                       # Reads before turning the bus around for writes
system.mem_ctrls1.wrPerTurnAround::samples         7640                       # Writes before turning the bus around for reads
system.mem_ctrls1.wrPerTurnAround::mean      5.616885                       # Writes before turning the bus around for reads
system.mem_ctrls1.wrPerTurnAround::gmean     5.384956                       # Writes before turning the bus around for reads
system.mem_ctrls1.wrPerTurnAround::stdev     2.223640                       # Writes before turning the bus around for reads
system.mem_ctrls1.wrPerTurnAround::4-7           7122     93.22%     93.22% # Writes before turning the bus around for reads
system.mem_ctrls1.wrPerTurnAround::8-11           162      2.12%     95.34% # Writes before turning the bus around for reads
system.mem_ctrls1.wrPerTurnAround::12-15          118      1.54%     96.88% # Writes before turning the bus around for reads
system.mem_ctrls1.wrPerTurnAround::16-19          238      3.12%    100.00% # Writes before turning the bus around for reads
system.mem_ctrls1.wrPerTurnAround::total         7640                       # Writes before turning the bus around for reads
system.mem_ctrls1.totQLat                  3121690404                       # Total ticks spent queuing
system.mem_ctrls1.totMemAccLat             4458602904                       # Total ticks spent from burst creation until serviced by the DRAM
system.mem_ctrls1.totBusLat                 356510000                       # Total ticks spent in databus transfers
system.mem_ctrls1.avgQLat                    43781.25                       # Average queueing delay per DRAM burst
system.mem_ctrls1.avgBusLat                   5000.00                       # Average bus latency per DRAM burst
system.mem_ctrls1.avgMemAccLat               62531.25                       # Average memory access latency per DRAM burst
system.mem_ctrls1.avgRdBW                      117.54                       # Average DRAM read bandwidth in MiByte/s
system.mem_ctrls1.avgWrBW                       70.74                       # Average achieved write bandwidth in MiByte/s
system.mem_ctrls1.avgRdBWSys                   117.56                       # Average system read bandwidth in MiByte/s
system.mem_ctrls1.avgWrBWSys                    70.75                       # Average system write bandwidth in MiByte/s
system.mem_ctrls1.peakBW                     12800.00                       # Theoretical peak bandwidth in MiByte/s
system.mem_ctrls1.busUtil                        1.47                       # Data bus utilization in percentage
system.mem_ctrls1.busUtilRead                    0.92                       # Data bus utilization in percentage for reads
system.mem_ctrls1.busUtilWrite                   0.55                       # Data bus utilization in percentage for writes
system.mem_ctrls1.avgRdQLen                      1.11                       # Average read queue length when enqueuing
system.mem_ctrls1.avgWrQLen                      2.86                       # Average write queue length when enqueuing
system.mem_ctrls1.readRowHits                   55787                       # Number of row buffer hits during reads
system.mem_ctrls1.writeRowHits                  29847                       # Number of row buffer hits during writes
system.mem_ctrls1.readRowHitRate                78.24                       # Row buffer hit rate for reads
system.mem_ctrls1.writeRowHitRate               69.55                       # Row buffer hit rate for writes
system.mem_ctrls1.avgGap                    339860.90                       # Average gap between requests
system.mem_ctrls1.pageHitRate                   74.97                       # Row buffer hit rate, read and write combined
system.mem_ctrls1.memoryStateTime::IDLE   10617688000                       # Time in different power states
system.mem_ctrls1.memoryStateTime::REF     1296360000                       # Time in different power states
system.mem_ctrls1.memoryStateTime::PRE_PDN            0                       # Time in different power states
system.mem_ctrls1.memoryStateTime::ACT    26908468250                       # Time in different power states
system.mem_ctrls1.memoryStateTime::ACT_PDN            0                       # Time in different power states
system.mem_ctrls1.actEnergy::0              112568400                       # Energy for activate commands per rank (pJ)
system.mem_ctrls1.actEnergy::1              103481280                       # Energy for activate commands per rank (pJ)
system.mem_ctrls1.preEnergy::0               61421250                       # Energy for precharge commands per rank (pJ)
system.mem_ctrls1.preEnergy::1               56463000                       # Energy for precharge commands per rank (pJ)
system.mem_ctrls1.readEnergy::0             282757800                       # Energy for read commands per rank (pJ)
system.mem_ctrls1.readEnergy::1             273312000                       # Energy for read commands per rank (pJ)
system.mem_ctrls1.writeEnergy::0            141212160                       # Energy for write commands per rank (pJ)
system.mem_ctrls1.writeEnergy::1            136864080                       # Energy for write commands per rank (pJ)
system.mem_ctrls1.refreshEnergy::0         2535680160                       # Energy for refresh commands per rank (pJ)
system.mem_ctrls1.refreshEnergy::1         2535680160                       # Energy for refresh commands per rank (pJ)
system.mem_ctrls1.actBackEnergy::0        14039240220                       # Energy for active background per rank (pJ)
system.mem_ctrls1.actBackEnergy::1        13373397000                       # Energy for active background per rank (pJ)
system.mem_ctrls1.preBackEnergy::0        10978378500                       # Energy for precharge background per rank (pJ)
system.mem_ctrls1.preBackEnergy::1        11562451500                       # Energy for precharge background per rank (pJ)
system.mem_ctrls1.totalEnergy::0          28151258490                       # Total energy per rank (pJ)
system.mem_ctrls1.totalEnergy::1          28041649020                       # Total energy per rank (pJ)
system.mem_ctrls1.averagePower::0          725.127353                       # Core power per rank (mW)
system.mem_ctrls1.averagePower::1          722.304004                       # Core power per rank (mW)
system.mem_ctrls2.bytes_read::ruby.dir_cntrl2      4566656                       # Number of bytes read from this memory
system.mem_ctrls2.bytes_read::total           4566656                       # Number of bytes read from this memory
system.mem_ctrls2.bytes_written::ruby.dir_cntrl2      2748160                       # Number of bytes written to this memory
system.mem_ctrls2.bytes_written::total        2748160                       # Number of bytes written to this memory
system.mem_ctrls2.num_reads::ruby.dir_cntrl2        71354                       # Number of read requests responded to by this memory
system.mem_ctrls2.num_reads::total              71354                       # Number of read requests responded to by this memory
system.mem_ctrls2.num_writes::ruby.dir_cntrl2        42940                       # Number of write requests responded to by this memory
system.mem_ctrls2.num_writes::total             42940                       # Number of write requests responded to by this memory
system.mem_ctrls2.bw_read::ruby.dir_cntrl2    117624274                       # Total read bandwidth from this memory (bytes/s)
system.mem_ctrls2.bw_read::total            117624274                       # Total read bandwidth from this memory (bytes/s)
system.mem_ctrls2.bw_write::ruby.dir_cntrl2     70784908                       # Write bandwidth from this memory (bytes/s)
system.mem_ctrls2.bw_write::total            70784908                       # Write bandwidth from this memory (bytes/s)
system.mem_ctrls2.bw_total::ruby.dir_cntrl2    188409182                       # Total bandwidth to/from this memory (bytes/s)
system.mem_ctrls2.bw_total::total           188409182                       # Total bandwidth to/from this memory (bytes/s)
system.mem_ctrls2.readReqs                      71354                       # Number of read requests accepted
system.mem_ctrls2.writeReqs                     42940                       # Number of write requests accepted
system.mem_ctrls2.readBursts                    71354                       # Number of DRAM read bursts, including those serviced by the write queue
system.mem_ctrls2.writeBursts                   42940                       # Number of DRAM write bursts, including those merged in the write queue
system.mem_ctrls2.bytesReadDRAM               4565696                       # Total number of bytes read from DRAM
system.mem_ctrls2.bytesReadWrQ                    960                       # Total number of bytes read from write queue
system.mem_ctrls2.bytesWritten                2747968                       # Total number of bytes written to DRAM
system.mem_ctrls2.bytesReadSys                4566656                       # Total read bytes from the system interface side
system.mem_ctrls2.bytesWrittenSys             2748160                       # Total written bytes from the system interface side
system.mem_ctrls2.servicedByWrQ                    15                       # Number of DRAM read bursts serviced by the write queue
system.mem_ctrls2.mergedWrBursts                    0                       # Number of DRAM write bursts merged with an existing one
system.mem_ctrls2.neitherReadNorWriteReqs            0                       # Number of requests that are neither read nor write
system.mem_ctrls2.perBankRdBursts::0             4292                       # Per bank write bursts
system.mem_ctrls2.perBankRdBursts::1             4781                       # Per bank write bursts
system.mem_ctrls2.perBankRdBursts::2             4434                       # Per bank write bursts
system.mem_ctrls2.perBankRdBursts::3             4798                       # Per bank write bursts
system.mem_ctrls2.perBankRdBursts::4             4535                       # Per bank write bursts
system.mem_ctrls2.perBankRdBursts::5             4626                       # Per bank write bursts
system.mem_ctrls2.perBankRdBursts::6             4418                       # Per bank write bursts
system.mem_ctrls2.perBankRdBursts::7             4419                       # Per bank write bursts
system.mem_ctrls2.perBankRdBursts::8             4357                       # Per bank write bursts
system.mem_ctrls2.perBankRdBursts::9             4653                       # Per bank write bursts
system.mem_ctrls2.perBankRdBursts::10            4395                       # Per bank write bursts
system.mem_ctrls2.perBankRdBursts::11            4652                       # Per bank write bursts
system.mem_ctrls2.perBankRdBursts::12            4240                       # Per bank write bursts
system.mem_ctrls2.perBankRdBursts::13            4073                       # Per bank write bursts
system.mem_ctrls2.perBankRdBursts::14            4263                       # Per bank write bursts
system.mem_ctrls2.perBankRdBursts::15            4403                       # Per bank write bursts
system.mem_ctrls2.perBankWrBursts::0             2703                       # Per bank write bursts
system.mem_ctrls2.perBankWrBursts::1             2712                       # Per bank write bursts
system.mem_ctrls2.perBankWrBursts::2             2688                       # Per bank write bursts
system.mem_ctrls2.perBankWrBursts::3             2789                       # Per bank write bursts
system.mem_ctrls2.perBankWrBursts::4             2697                       # Per bank write bursts
system.mem_ctrls2.perBankWrBursts::5             2820                       # Per bank write bursts
system.mem_ctrls2.perBankWrBursts::6             2646                       # Per bank write bursts
system.mem_ctrls2.perBankWrBursts::7             2734                       # Per bank write bursts
system.mem_ctrls2.perBankWrBursts::8             2629                       # Per bank write bursts
system.mem_ctrls2.perBankWrBursts::9             2811                       # Per bank write bursts
system.mem_ctrls2.perBankWrBursts::10            2656                       # Per bank write bursts
system.mem_ctrls2.perBankWrBursts::11            2599                       # Per bank write bursts
system.mem_ctrls2.perBankWrBursts::12            2536                       # Per bank write bursts
system.mem_ctrls2.perBankWrBursts::13            2548                       # Per bank write bursts
system.mem_ctrls2.perBankWrBursts::14            2715                       # Per bank write bursts
system.mem_ctrls2.perBankWrBursts::15            2654                       # Per bank write bursts
system.mem_ctrls2.numRdRetry                      309                       # Number of times read queue was full causing retry
system.mem_ctrls2.numWrRetry                     2160                       # Number of times write queue was full causing retry
system.mem_ctrls2.totGap                  38823569500                       # Total gap between requests
system.mem_ctrls2.readPktSize::0                    0                       # Read request sizes (log2)
system.mem_ctrls2.readPktSize::1                    0                       # Read request sizes (log2)
system.mem_ctrls2.readPktSize::2                    0                       # Read request sizes (log2)
system.mem_ctrls2.readPktSize::3                    0                       # Read request sizes (log2)
system.mem_ctrls2.readPktSize::4                    0                       # Read request sizes (log2)
system.mem_ctrls2.readPktSize::5                    0                       # Read request sizes (log2)
system.mem_ctrls2.readPktSize::6                71354                       # Read request sizes (log2)
system.mem_ctrls2.writePktSize::0                   0                       # Write request sizes (log2)
system.mem_ctrls2.writePktSize::1                   0                       # Write request sizes (log2)
system.mem_ctrls2.writePktSize::2                   0                       # Write request sizes (log2)
system.mem_ctrls2.writePktSize::3                   0                       # Write request sizes (log2)
system.mem_ctrls2.writePktSize::4                   0                       # Write request sizes (log2)
system.mem_ctrls2.writePktSize::5                   0                       # Write request sizes (log2)
system.mem_ctrls2.writePktSize::6               42940                       # Write request sizes (log2)
system.mem_ctrls2.rdQLenPdf::0                  44969                       # What read queue length does an incoming req see
system.mem_ctrls2.rdQLenPdf::1                   3718                       # What read queue length does an incoming req see
system.mem_ctrls2.rdQLenPdf::2                   3340                       # What read queue length does an incoming req see
system.mem_ctrls2.rdQLenPdf::3                   2797                       # What read queue length does an incoming req see
system.mem_ctrls2.rdQLenPdf::4                   2380                       # What read queue length does an incoming req see
system.mem_ctrls2.rdQLenPdf::5                   1920                       # What read queue length does an incoming req see
system.mem_ctrls2.rdQLenPdf::6                   1638                       # What read queue length does an incoming req see
system.mem_ctrls2.rdQLenPdf::7                   1366                       # What read queue length does an incoming req see
system.mem_ctrls2.rdQLenPdf::8                   1137                       # What read queue length does an incoming req see
system.mem_ctrls2.rdQLenPdf::9                   1011                       # What read queue length does an incoming req see
system.mem_ctrls2.rdQLenPdf::10                   875                       # What read queue length does an incoming req see
system.mem_ctrls2.rdQLenPdf::11                   751                       # What read queue length does an incoming req see
system.mem_ctrls2.rdQLenPdf::12                   632                       # What read queue length does an incoming req see
system.mem_ctrls2.rdQLenPdf::13                   545                       # What read queue length does an incoming req see
system.mem_ctrls2.rdQLenPdf::14                   439                       # What read queue length does an incoming req see
system.mem_ctrls2.rdQLenPdf::15                   406                       # What read queue length does an incoming req see
system.mem_ctrls2.rdQLenPdf::16                   392                       # What read queue length does an incoming req see
system.mem_ctrls2.rdQLenPdf::17                   350                       # What read queue length does an incoming req see
system.mem_ctrls2.rdQLenPdf::18                   286                       # What read queue length does an incoming req see
system.mem_ctrls2.rdQLenPdf::19                   269                       # What read queue length does an incoming req see
system.mem_ctrls2.rdQLenPdf::20                   222                       # What read queue length does an incoming req see
system.mem_ctrls2.rdQLenPdf::21                   200                       # What read queue length does an incoming req see
system.mem_ctrls2.rdQLenPdf::22                   176                       # What read queue length does an incoming req see
system.mem_ctrls2.rdQLenPdf::23                   176                       # What read queue length does an incoming req see
system.mem_ctrls2.rdQLenPdf::24                   168                       # What read queue length does an incoming req see
system.mem_ctrls2.rdQLenPdf::25                   157                       # What read queue length does an incoming req see
system.mem_ctrls2.rdQLenPdf::26                   152                       # What read queue length does an incoming req see
system.mem_ctrls2.rdQLenPdf::27                   143                       # What read queue length does an incoming req see
system.mem_ctrls2.rdQLenPdf::28                   121                       # What read queue length does an incoming req see
system.mem_ctrls2.rdQLenPdf::29                    96                       # What read queue length does an incoming req see
system.mem_ctrls2.rdQLenPdf::30                   100                       # What read queue length does an incoming req see
system.mem_ctrls2.rdQLenPdf::31                   407                       # What read queue length does an incoming req see
system.mem_ctrls2.wrQLenPdf::0                   7436                       # What write queue length does an incoming req see
system.mem_ctrls2.wrQLenPdf::1                   7641                       # What write queue length does an incoming req see
system.mem_ctrls2.wrQLenPdf::2                   7793                       # What write queue length does an incoming req see
system.mem_ctrls2.wrQLenPdf::3                   7897                       # What write queue length does an incoming req see
system.mem_ctrls2.wrQLenPdf::4                   8011                       # What write queue length does an incoming req see
system.mem_ctrls2.wrQLenPdf::5                    729                       # What write queue length does an incoming req see
system.mem_ctrls2.wrQLenPdf::6                    676                       # What write queue length does an incoming req see
system.mem_ctrls2.wrQLenPdf::7                   2757                       # What write queue length does an incoming req see
system.mem_ctrls2.bytesPerActivate::samples        28566                       # Bytes accessed per row activation
system.mem_ctrls2.bytesPerActivate::mean   256.011202                       # Bytes accessed per row activation
system.mem_ctrls2.bytesPerActivate::gmean   176.279310                       # Bytes accessed per row activation
system.mem_ctrls2.bytesPerActivate::stdev   240.889679                       # Bytes accessed per row activation
system.mem_ctrls2.bytesPerActivate::0-127         9301     32.56%     32.56% # Bytes accessed per row activation
system.mem_ctrls2.bytesPerActivate::128-255         6543     22.90%     55.46% # Bytes accessed per row activation
system.mem_ctrls2.bytesPerActivate::256-383         8133     28.47%     83.94% # Bytes accessed per row activation
system.mem_ctrls2.bytesPerActivate::384-511         1119      3.92%     87.85% # Bytes accessed per row activation
system.mem_ctrls2.bytesPerActivate::512-639          809      2.83%     90.68% # Bytes accessed per row activation
system.mem_ctrls2.bytesPerActivate::640-767          619      2.17%     92.85% # Bytes accessed per row activation
system.mem_ctrls2.bytesPerActivate::768-895          430      1.51%     94.36% # Bytes accessed per row activation
system.mem_ctrls2.bytesPerActivate::896-1023          446      1.56%     95.92% # Bytes accessed per row activation
system.mem_ctrls2.bytesPerActivate::1024-1151         1166      4.08%    100.00% # Bytes accessed per row activation
system.mem_ctrls2.bytesPerActivate::total        28566                       # Bytes accessed per row activation
system.mem_ctrls2.rdPerTurnAround::samples         7658                       # Reads before turning the bus around for writes
system.mem_ctrls2.rdPerTurnAround::mean      9.311961                       # Reads before turning the bus around for writes
system.mem_ctrls2.rdPerTurnAround::stdev    37.468980                       # Reads before turning the bus around for writes
system.mem_ctrls2.rdPerTurnAround::0-127         7653     99.93%     99.93% # Reads before turning the bus around for writes
system.mem_ctrls2.rdPerTurnAround::128-255            3      0.04%     99.97% # Reads before turning the bus around for writes
system.mem_ctrls2.rdPerTurnAround::1152-1279            1      0.01%     99.99% # Reads before turning the bus around for writes
system.mem_ctrls2.rdPerTurnAround::2816-2943            1      0.01%    100.00% # Reads before turning the bus around for writes
system.mem_ctrls2.rdPerTurnAround::total         7658                       # Reads before turning the bus around for writes
system.mem_ctrls2.wrPerTurnAround::samples         7658                       # Writes before turning the bus around for reads
system.mem_ctrls2.wrPerTurnAround::mean      5.606816                       # Writes before turning the bus around for reads
system.mem_ctrls2.wrPerTurnAround::gmean     5.375840                       # Writes before turning the bus around for reads
system.mem_ctrls2.wrPerTurnAround::stdev     2.226296                       # Writes before turning the bus around for reads
system.mem_ctrls2.wrPerTurnAround::4-7           7158     93.47%     93.47% # Writes before turning the bus around for reads
system.mem_ctrls2.wrPerTurnAround::8-11           151      1.97%     95.44% # Writes before turning the bus around for reads
system.mem_ctrls2.wrPerTurnAround::12-15          101      1.32%     96.76% # Writes before turning the bus around for reads
system.mem_ctrls2.wrPerTurnAround::16-19          248      3.24%    100.00% # Writes before turning the bus around for reads
system.mem_ctrls2.wrPerTurnAround::total         7658                       # Writes before turning the bus around for reads
system.mem_ctrls2.totQLat                  3081163939                       # Total ticks spent queuing
system.mem_ctrls2.totMemAccLat             4418770189                       # Total ticks spent from burst creation until serviced by the DRAM
system.mem_ctrls2.totBusLat                 356695000                       # Total ticks spent in databus transfers
system.mem_ctrls2.avgQLat                    43190.46                       # Average queueing delay per DRAM burst
system.mem_ctrls2.avgBusLat                   5000.00                       # Average bus latency per DRAM burst
system.mem_ctrls2.avgMemAccLat               61940.46                       # Average memory access latency per DRAM burst
system.mem_ctrls2.avgRdBW                      117.60                       # Average DRAM read bandwidth in MiByte/s
system.mem_ctrls2.avgWrBW                       70.78                       # Average achieved write bandwidth in MiByte/s
system.mem_ctrls2.avgRdBWSys                   117.62                       # Average system read bandwidth in MiByte/s
system.mem_ctrls2.avgWrBWSys                    70.78                       # Average system write bandwidth in MiByte/s
system.mem_ctrls2.peakBW                     12800.00                       # Theoretical peak bandwidth in MiByte/s
system.mem_ctrls2.busUtil                        1.47                       # Data bus utilization in percentage
system.mem_ctrls2.busUtilRead                    0.92                       # Data bus utilization in percentage for reads
system.mem_ctrls2.busUtilWrite                   0.55                       # Data bus utilization in percentage for writes
system.mem_ctrls2.avgRdQLen                      1.10                       # Average read queue length when enqueuing
system.mem_ctrls2.avgWrQLen                      2.88                       # Average write queue length when enqueuing
system.mem_ctrls2.readRowHits                   55788                       # Number of row buffer hits during reads
system.mem_ctrls2.writeRowHits                  29919                       # Number of row buffer hits during writes
system.mem_ctrls2.readRowHitRate                78.20                       # Row buffer hit rate for reads
system.mem_ctrls2.writeRowHitRate               69.68                       # Row buffer hit rate for writes
system.mem_ctrls2.avgGap                    339681.61                       # Average gap between requests
system.mem_ctrls2.pageHitRate                   75.00                       # Row buffer hit rate, read and write combined
system.mem_ctrls2.memoryStateTime::IDLE   10523033750                       # Time in different power states
system.mem_ctrls2.memoryStateTime::REF     1296360000                       # Time in different power states
system.mem_ctrls2.memoryStateTime::PRE_PDN            0                       # Time in different power states
system.mem_ctrls2.memoryStateTime::ACT    27003221250                       # Time in different power states
system.mem_ctrls2.memoryStateTime::ACT_PDN            0                       # Time in different power states
system.mem_ctrls2.actEnergy::0              112644000                       # Energy for activate commands per rank (pJ)
system.mem_ctrls2.actEnergy::1              103314960                       # Energy for activate commands per rank (pJ)
system.mem_ctrls2.preEnergy::0               61462500                       # Energy for precharge commands per rank (pJ)
system.mem_ctrls2.preEnergy::1               56372250                       # Energy for precharge commands per rank (pJ)
system.mem_ctrls2.readEnergy::0             283132200                       # Energy for read commands per rank (pJ)
system.mem_ctrls2.readEnergy::1             273257400                       # Energy for read commands per rank (pJ)
system.mem_ctrls2.writeEnergy::0            141192720                       # Energy for write commands per rank (pJ)
system.mem_ctrls2.writeEnergy::1            137039040                       # Energy for write commands per rank (pJ)
system.mem_ctrls2.refreshEnergy::0         2535680160                       # Energy for refresh commands per rank (pJ)
system.mem_ctrls2.refreshEnergy::1         2535680160                       # Energy for refresh commands per rank (pJ)
system.mem_ctrls2.actBackEnergy::0        14088076965                       # Energy for active background per rank (pJ)
system.mem_ctrls2.actBackEnergy::1        13448760120                       # Energy for active background per rank (pJ)
system.mem_ctrls2.preBackEnergy::0        10935539250                       # Energy for precharge background per rank (pJ)
system.mem_ctrls2.preBackEnergy::1        11496343500                       # Energy for precharge background per rank (pJ)
system.mem_ctrls2.totalEnergy::0          28157727795                       # Total energy per rank (pJ)
system.mem_ctrls2.totalEnergy::1          28050767430                       # Total energy per rank (pJ)
system.mem_ctrls2.averagePower::0          725.293991                       # Core power per rank (mW)
system.mem_ctrls2.averagePower::1          722.538879                       # Core power per rank (mW)
system.mem_ctrls3.bytes_read::ruby.dir_cntrl3      4548544                       # Number of bytes read from this memory
system.mem_ctrls3.bytes_read::total           4548544                       # Number of bytes read from this memory
system.mem_ctrls3.bytes_written::ruby.dir_cntrl3      2743616                       # Number of bytes written to this memory
system.mem_ctrls3.bytes_written::total        2743616                       # Number of bytes written to this memory
system.mem_ctrls3.num_reads::ruby.dir_cntrl3        71071                       # Number of read requests responded to by this memory
system.mem_ctrls3.num_reads::total              71071                       # Number of read requests responded to by this memory
system.mem_ctrls3.num_writes::ruby.dir_cntrl3        42869                       # Number of write requests responded to by this memory
system.mem_ctrls3.num_writes::total             42869                       # Number of write requests responded to by this memory
system.mem_ctrls3.bw_read::ruby.dir_cntrl3    117157760                       # Total read bandwidth from this memory (bytes/s)
system.mem_ctrls3.bw_read::total            117157760                       # Total read bandwidth from this memory (bytes/s)
system.mem_ctrls3.bw_write::ruby.dir_cntrl3     70667867                       # Write bandwidth from this memory (bytes/s)
system.mem_ctrls3.bw_write::total            70667867                       # Write bandwidth from this memory (bytes/s)
system.mem_ctrls3.bw_total::ruby.dir_cntrl3    187825627                       # Total bandwidth to/from this memory (bytes/s)
system.mem_ctrls3.bw_total::total           187825627                       # Total bandwidth to/from this memory (bytes/s)
system.mem_ctrls3.readReqs                      71072                       # Number of read requests accepted
system.mem_ctrls3.writeReqs                     42869                       # Number of write requests accepted
system.mem_ctrls3.readBursts                    71072                       # Number of DRAM read bursts, including those serviced by the write queue
system.mem_ctrls3.writeBursts                   42869                       # Number of DRAM write bursts, including those merged in the write queue
system.mem_ctrls3.bytesReadDRAM               4548160                       # Total number of bytes read from DRAM
system.mem_ctrls3.bytesReadWrQ                    448                       # Total number of bytes read from write queue
system.mem_ctrls3.bytesWritten                2743552                       # Total number of bytes written to DRAM
system.mem_ctrls3.bytesReadSys                4548608                       # Total read bytes from the system interface side
system.mem_ctrls3.bytesWrittenSys             2743616                       # Total written bytes from the system interface side
system.mem_ctrls3.servicedByWrQ                     7                       # Number of DRAM read bursts serviced by the write queue
system.mem_ctrls3.mergedWrBursts                    0                       # Number of DRAM write bursts merged with an existing one
system.mem_ctrls3.neitherReadNorWriteReqs            0                       # Number of requests that are neither read nor write
system.mem_ctrls3.perBankRdBursts::0             4281                       # Per bank write bursts
system.mem_ctrls3.perBankRdBursts::1             4737                       # Per bank write bursts
system.mem_ctrls3.perBankRdBursts::2             4407                       # Per bank write bursts
system.mem_ctrls3.perBankRdBursts::3             4759                       # Per bank write bursts
system.mem_ctrls3.perBankRdBursts::4             4487                       # Per bank write bursts
system.mem_ctrls3.perBankRdBursts::5             4595                       # Per bank write bursts
system.mem_ctrls3.perBankRdBursts::6             4405                       # Per bank write bursts
system.mem_ctrls3.perBankRdBursts::7             4417                       # Per bank write bursts
system.mem_ctrls3.perBankRdBursts::8             4365                       # Per bank write bursts
system.mem_ctrls3.perBankRdBursts::9             4633                       # Per bank write bursts
system.mem_ctrls3.perBankRdBursts::10            4406                       # Per bank write bursts
system.mem_ctrls3.perBankRdBursts::11            4620                       # Per bank write bursts
system.mem_ctrls3.perBankRdBursts::12            4224                       # Per bank write bursts
system.mem_ctrls3.perBankRdBursts::13            4052                       # Per bank write bursts
system.mem_ctrls3.perBankRdBursts::14            4276                       # Per bank write bursts
system.mem_ctrls3.perBankRdBursts::15            4401                       # Per bank write bursts
system.mem_ctrls3.perBankWrBursts::0             2708                       # Per bank write bursts
system.mem_ctrls3.perBankWrBursts::1             2700                       # Per bank write bursts
system.mem_ctrls3.perBankWrBursts::2             2689                       # Per bank write bursts
system.mem_ctrls3.perBankWrBursts::3             2773                       # Per bank write bursts
system.mem_ctrls3.perBankWrBursts::4             2690                       # Per bank write bursts
system.mem_ctrls3.perBankWrBursts::5             2817                       # Per bank write bursts
system.mem_ctrls3.perBankWrBursts::6             2639                       # Per bank write bursts
system.mem_ctrls3.perBankWrBursts::7             2726                       # Per bank write bursts
system.mem_ctrls3.perBankWrBursts::8             2625                       # Per bank write bursts
system.mem_ctrls3.perBankWrBursts::9             2804                       # Per bank write bursts
system.mem_ctrls3.perBankWrBursts::10            2651                       # Per bank write bursts
system.mem_ctrls3.perBankWrBursts::11            2605                       # Per bank write bursts
system.mem_ctrls3.perBankWrBursts::12            2531                       # Per bank write bursts
system.mem_ctrls3.perBankWrBursts::13            2555                       # Per bank write bursts
system.mem_ctrls3.perBankWrBursts::14            2707                       # Per bank write bursts
system.mem_ctrls3.perBankWrBursts::15            2648                       # Per bank write bursts
system.mem_ctrls3.numRdRetry                      372                       # Number of times read queue was full causing retry
system.mem_ctrls3.numWrRetry                     2385                       # Number of times write queue was full causing retry
system.mem_ctrls3.totGap                  38823352500                       # Total gap between requests
system.mem_ctrls3.readPktSize::0                    0                       # Read request sizes (log2)
system.mem_ctrls3.readPktSize::1                    0                       # Read request sizes (log2)
system.mem_ctrls3.readPktSize::2                    0                       # Read request sizes (log2)
system.mem_ctrls3.readPktSize::3                    0                       # Read request sizes (log2)
system.mem_ctrls3.readPktSize::4                    0                       # Read request sizes (log2)
system.mem_ctrls3.readPktSize::5                    0                       # Read request sizes (log2)
system.mem_ctrls3.readPktSize::6                71072                       # Read request sizes (log2)
system.mem_ctrls3.writePktSize::0                   0                       # Write request sizes (log2)
system.mem_ctrls3.writePktSize::1                   0                       # Write request sizes (log2)
system.mem_ctrls3.writePktSize::2                   0                       # Write request sizes (log2)
system.mem_ctrls3.writePktSize::3                   0                       # Write request sizes (log2)
system.mem_ctrls3.writePktSize::4                   0                       # Write request sizes (log2)
system.mem_ctrls3.writePktSize::5                   0                       # Write request sizes (log2)
system.mem_ctrls3.writePktSize::6               42869                       # Write request sizes (log2)
system.mem_ctrls3.rdQLenPdf::0                  44445                       # What read queue length does an incoming req see
system.mem_ctrls3.rdQLenPdf::1                   3286                       # What read queue length does an incoming req see
system.mem_ctrls3.rdQLenPdf::2                   2907                       # What read queue length does an incoming req see
system.mem_ctrls3.rdQLenPdf::3                   2629                       # What read queue length does an incoming req see
system.mem_ctrls3.rdQLenPdf::4                   2389                       # What read queue length does an incoming req see
system.mem_ctrls3.rdQLenPdf::5                   2011                       # What read queue length does an incoming req see
system.mem_ctrls3.rdQLenPdf::6                   1733                       # What read queue length does an incoming req see
system.mem_ctrls3.rdQLenPdf::7                   1449                       # What read queue length does an incoming req see
system.mem_ctrls3.rdQLenPdf::8                   1211                       # What read queue length does an incoming req see
system.mem_ctrls3.rdQLenPdf::9                   1097                       # What read queue length does an incoming req see
system.mem_ctrls3.rdQLenPdf::10                   982                       # What read queue length does an incoming req see
system.mem_ctrls3.rdQLenPdf::11                   825                       # What read queue length does an incoming req see
system.mem_ctrls3.rdQLenPdf::12                   726                       # What read queue length does an incoming req see
system.mem_ctrls3.rdQLenPdf::13                   635                       # What read queue length does an incoming req see
system.mem_ctrls3.rdQLenPdf::14                   519                       # What read queue length does an incoming req see
system.mem_ctrls3.rdQLenPdf::15                   476                       # What read queue length does an incoming req see
system.mem_ctrls3.rdQLenPdf::16                   423                       # What read queue length does an incoming req see
system.mem_ctrls3.rdQLenPdf::17                   388                       # What read queue length does an incoming req see
system.mem_ctrls3.rdQLenPdf::18                   335                       # What read queue length does an incoming req see
system.mem_ctrls3.rdQLenPdf::19                   321                       # What read queue length does an incoming req see
system.mem_ctrls3.rdQLenPdf::20                   271                       # What read queue length does an incoming req see
system.mem_ctrls3.rdQLenPdf::21                   236                       # What read queue length does an incoming req see
system.mem_ctrls3.rdQLenPdf::22                   210                       # What read queue length does an incoming req see
system.mem_ctrls3.rdQLenPdf::23                   176                       # What read queue length does an incoming req see
system.mem_ctrls3.rdQLenPdf::24                   172                       # What read queue length does an incoming req see
[...]
system.ruby.L2Cache_Controller.ISS.Mem_Data::total       124022                      
system.ruby.L2Cache_Controller.IS.Mem_Data |         399      3.23%      3.23% |         358      2.90%      6.13% |         375      3.03%      9.16% |         371      3.00%     12.16% |         378      3.06%     15.22% |         365      2.95%     18.18% |         379      3.07%     21.24% |         386      3.12%     24.37% |         373      3.02%     27.39% |         383      3.10%     30.49% |         407      3.29%     33.78% |         404      3.27%     37.05% |         412      3.33%     40.39% |         407      3.29%     43.68% |         408      3.30%     46.98% |         405      3.28%     50.26% |         416      3.37%     53.63% |         390      3.16%     56.78% |         388      3.14%     59.92% |         370      2.99%     62.92% |         364      2.95%     65.86% |         370      2.99%     68.86% |         369      2.99%     71.84% |         367      2.97%     74.81% |         395      3.20%     78.01% |         406      3.29%     81.30% |         412      3.33%     84.63% |         379      3.07%     87.70% |         382      3.09%     90.79% |         382      3.09%     93.88% |         384      3.11%     96.99% |         372      3.01%    100.00%
system.ruby.L2Cache_Controller.IS.Mem_Data::total        12356                      
system.ruby.L2Cache_Controller.IM.L1_GETX |           0      0.00%      0.00% |           0      0.00%      0.00% |           0      0.00%      0.00% |           0      0.00%      0.00% |           0      0.00%      0.00% |           0      0.00%      0.00% |           0      0.00%      0.00% |           0      0.00%      0.00% |           0      0.00%      0.00% |           0      0.00%      0.00% |           0      0.00%      0.00% |           0      0.00%      0.00% |           0      0.00%      0.00% |           0      0.00%      0.00% |           0      0.00%      0.00% |           0      0.00%      0.00% |           2    100.00%    100.00% |           0      0.00%    100.00% |           0      0.00%    100.00% |           0      0.00%    100.00% |           0      0.00%    100.00% |           0      0.00%    100.00% |           0      0.00%    100.00% |           0      0.00%    100.00% |           0      0.00%    100.00% |           0      0.00%    100.00% |           0      0.00%    100.00% |           0      0.00%    100.00% |           0      0.00%    100.00% |           0      0.00%    100.00% |           0      0.00%    100.00% |           0      0.00%    100.00%
system.ruby.L2Cache_Controller.IM.L1_GETX::total            2                      
system.ruby.L2Cache_Controller.IM.Mem_Data |        4705      3.12%      3.12% |        4697      3.12%      6.24% |        4706      3.12%      9.37% |        4713      3.13%     12.50% |        4704      3.12%     15.62% |        4712      3.13%     18.75% |        4710      3.13%     21.88% |        4694      3.12%     24.99% |        4710      3.13%     28.12% |        4711      3.13%     31.25% |        4696      3.12%     34.37% |        4715      3.13%     37.50% |        4700      3.12%     40.62% |        4703      3.12%     43.74% |        4702      3.12%     46.86% |        4698      3.12%     49.98% |        4716      3.13%     53.12% |        4710      3.13%     56.24% |        4712      3.13%     59.37% |        4706      3.12%     62.50% |        4709      3.13%     65.62% |        4722      3.14%     68.76% |        4702      3.12%     71.88% |        4707      3.13%     75.01% |        4720      3.13%     78.14% |        4710      3.13%     81.27% |        4716      3.13%     84.40% |        4702      3.12%     87.52% |        4703      3.12%     90.64% |        4699      3.12%     93.76% |        4703      3.12%     96.89% |        4688      3.11%    100.00%
system.ruby.L2Cache_Controller.IM.Mem_Data::total       150601                      
system.ruby.L2Cache_Controller.SS_MB.Exclusive_Unblock |           3      6.82%      6.82% |           6     13.64%     20.45% |           3      6.82%     27.27% |           4      9.09%     36.36% |           0      0.00%     36.36% |           0      0.00%     36.36% |           0      0.00%     36.36% |           0      0.00%     36.36% |           0      0.00%     36.36% |           0      0.00%     36.36% |           0      0.00%     36.36% |           0      0.00%     36.36% |           3      6.82%     43.18% |           0      0.00%     43.18% |           4      9.09%     52.27% |           0      0.00%     52.27% |           1      2.27%     54.55% |           0      0.00%     54.55% |          11     25.00%     79.55% |           2      4.55%     84.09% |           0      0.00%     84.09% |           1      2.27%     86.36% |           0      0.00%     86.36% |           1      2.27%     88.64% |           1      2.27%     90.91% |           0      0.00%     90.91% |           1      2.27%     93.18% |           2      4.55%     97.73% |           1      2.27%    100.00% |           0      0.00%    100.00% |           0      0.00%    100.00% |           0      0.00%    100.00%
system.ruby.L2Cache_Controller.SS_MB.Exclusive_Unblock::total           44                      
system.ruby.L2Cache_Controller.MT_MB.L1_GETS |           4     80.00%     80.00% |           0      0.00%     80.00% |           0      0.00%     80.00% |           0      0.00%     80.00% |           0      0.00%     80.00% |           0      0.00%     80.00% |           0      0.00%     80.00% |           0      0.00%     80.00% |           0      0.00%     80.00% |           0      0.00%     80.00% |           0      0.00%     80.00% |           0      0.00%     80.00% |           0      0.00%     80.00% |           0      0.00%     80.00% |           0      0.00%     80.00% |           0      0.00%     80.00% |           1     20.00%    100.00% |           0      0.00%    100.00% |           0      0.00%    100.00% |           0      0.00%    100.00% |           0      0.00%    100.00% |           0      0.00%    100.00% |           0      0.00%    100.00% |           0      0.00%    100.00% |           0      0.00%    100.00% |           0      0.00%    100.00% |           0      0.00%    100.00% |           0      0.00%    100.00% |           0      0.00%    100.00% |           0      0.00%    100.00% |           0      0.00%    100.00% |           0      0.00%    100.00%
system.ruby.L2Cache_Controller.MT_MB.L1_GETS::total            5                      
system.ruby.L2Cache_Controller.MT_MB.Exclusive_Unblock |       60408     12.23%     12.23% |       15538      3.15%     15.38% |       12747      2.58%     17.96% |       14800      3.00%     20.95% |       13333      2.70%     23.65% |       12717      2.57%     26.23% |       12240      2.48%     28.71% |       12902      2.61%     31.32% |       13097      2.65%     33.97% |       12757      2.58%     36.55% |       15511      3.14%     39.69% |       15760      3.19%     42.89% |       14128      2.86%     45.75% |       13215      2.68%     48.42% |       11998      2.43%     50.85% |       12462      2.52%     53.37% |       13971      2.83%     56.20% |       12805      2.59%     58.80% |       13227      2.68%     61.47% |       14224      2.88%     64.35% |       14901      3.02%     67.37% |       15886      3.22%     70.59% |       13721      2.78%     73.37% |       13754      2.78%     76.15% |       13836      2.80%     78.95% |       13398      2.71%     81.66% |       13250      2.68%     84.35% |       12958      2.62%     86.97% |       15562      3.15%     90.12% |       13986      2.83%     92.95% |       16358      3.31%     96.27% |       18447      3.73%    100.00%
system.ruby.L2Cache_Controller.MT_MB.Exclusive_Unblock::total       493897                      
system.ruby.L2Cache_Controller.MT_IIB.WB_Data |           0      0.00%      0.00% |           1     20.00%     20.00% |           1     20.00%     40.00% |           1     20.00%     60.00% |           0      0.00%     60.00% |           0      0.00%     60.00% |           1     20.00%     80.00% |           0      0.00%     80.00% |           0      0.00%     80.00% |           1     20.00%    100.00% |           0      0.00%    100.00% |           0      0.00%    100.00% |           0      0.00%    100.00% |           0      0.00%    100.00% |           0      0.00%    100.00% |           0      0.00%    100.00% |           0      0.00%    100.00% |           0      0.00%    100.00% |           0      0.00%    100.00% |           0      0.00%    100.00% |           0      0.00%    100.00% |           0      0.00%    100.00% |           0      0.00%    100.00% |           0      0.00%    100.00% |           0      0.00%    100.00% |           0      0.00%    100.00% |           0      0.00%    100.00% |           0      0.00%    100.00% |           0      0.00%    100.00% |           0      0.00%    100.00% |           0      0.00%    100.00% |           0      0.00%    100.00%
system.ruby.L2Cache_Controller.MT_IIB.WB_Data::total            5                      
system.ruby.L2Cache_Controller.MT_IIB.WB_Data_clean |        2982     51.06%     51.06% |           0      0.00%     51.06% |           0      0.00%     51.06% |           0      0.00%     51.06% |           0      0.00%     51.06% |           0      0.00%     51.06% |           0      0.00%     51.06% |           0      0.00%     51.06% |           0      0.00%     51.06% |           0      0.00%     51.06% |           0      0.00%     51.06% |           0      0.00%     51.06% |           0      0.00%     51.06% |           0      0.00%     51.06% |           0      0.00%     51.06% |           0      0.00%     51.06% |        2858     48.94%    100.00% |           0      0.00%    100.00% |           0      0.00%    100.00% |           0      0.00%    100.00% |           0      0.00%    100.00% |           0      0.00%    100.00% |           0      0.00%    100.00% |           0      0.00%    100.00% |           0      0.00%    100.00% |           0      0.00%    100.00% |           0      0.00%    100.00% |           0      0.00%    100.00% |           0      0.00%    100.00% |           0      0.00%    100.00% |           0      0.00%    100.00% |           0      0.00%    100.00%
system.ruby.L2Cache_Controller.MT_IIB.WB_Data_clean::total         5840                      
system.ruby.L2Cache_Controller.MT_IIB.Unblock |          77     26.92%     26.92% |           0      0.00%     26.92% |           0      0.00%     26.92% |           0      0.00%     26.92% |           0      0.00%     26.92% |           0      0.00%     26.92% |           0      0.00%     26.92% |           0      0.00%     26.92% |           0      0.00%     26.92% |           0      0.00%     26.92% |           0      0.00%     26.92% |           0      0.00%     26.92% |           0      0.00%     26.92% |           0      0.00%     26.92% |           0      0.00%     26.92% |           0      0.00%     26.92% |         209     73.08%    100.00% |           0      0.00%    100.00% |           0      0.00%    100.00% |           0      0.00%    100.00% |           0      0.00%    100.00% |           0      0.00%    100.00% |           0      0.00%    100.00% |           0      0.00%    100.00% |           0      0.00%    100.00% |           0      0.00%    100.00% |           0      0.00%    100.00% |           0      0.00%    100.00% |           0      0.00%    100.00% |           0      0.00%    100.00% |           0      0.00%    100.00% |           0      0.00%    100.00%
system.ruby.L2Cache_Controller.MT_IIB.Unblock::total          286                      
system.ruby.L2Cache_Controller.MT_IB.WB_Data_clean |          77     26.92%     26.92% |           0      0.00%     26.92% |           0      0.00%     26.92% |           0      0.00%     26.92% |           0      0.00%     26.92% |           0      0.00%     26.92% |           0      0.00%     26.92% |           0      0.00%     26.92% |           0      0.00%     26.92% |           0      0.00%     26.92% |           0      0.00%     26.92% |           0      0.00%     26.92% |           0      0.00%     26.92% |           0      0.00%     26.92% |           0      0.00%     26.92% |           0      0.00%     26.92% |         209     73.08%    100.00% |           0      0.00%    100.00% |           0      0.00%    100.00% |           0      0.00%    100.00% |           0      0.00%    100.00% |           0      0.00%    100.00% |           0      0.00%    100.00% |           0      0.00%    100.00% |           0      0.00%    100.00% |           0      0.00%    100.00% |           0      0.00%    100.00% |           0      0.00%    100.00% |           0      0.00%    100.00% |           0      0.00%    100.00% |           0      0.00%    100.00% |           0      0.00%    100.00%
system.ruby.L2Cache_Controller.MT_IB.WB_Data_clean::total          286                      
system.ruby.L2Cache_Controller.MT_SB.Unblock |        2982     51.02%     51.02% |           1      0.02%     51.04% |           1      0.02%     51.05% |           1      0.02%     51.07% |           0      0.00%     51.07% |           0      0.00%     51.07% |           1      0.02%     51.09% |           0      0.00%     51.09% |           0      0.00%     51.09% |           1      0.02%     51.10% |           0      0.00%     51.10% |           0      0.00%     51.10% |           0      0.00%     51.10% |           0      0.00%     51.10% |           0      0.00%     51.10% |           0      0.00%     51.10% |        2858     48.90%    100.00% |           0      0.00%    100.00% |           0      0.00%    100.00% |           0      0.00%    100.00% |           0      0.00%    100.00% |           0      0.00%    100.00% |           0      0.00%    100.00% |           0      0.00%    100.00% |           0      0.00%    100.00% |           0      0.00%    100.00% |           0      0.00%    100.00% |           0      0.00%    100.00% |           0      0.00%    100.00% |           0      0.00%    100.00% |           0      0.00%    100.00% |           0      0.00%    100.00%
system.ruby.L2Cache_Controller.MT_SB.Unblock::total         5845                      
system.ruby.SimicsNetworkPortInterface_Controller.MessageSend |       16542     10.31%     10.31% |       80251     50.00%     60.31% |        8128      5.06%     65.37% |        8128      5.06%     70.43% |        7815      4.87%     75.30% |        7617      4.75%     80.05% |        7956      4.96%     85.01% |        7638      4.76%     89.77% |        8045      5.01%     94.78% |        8382      5.22%    100.00% |           0      0.00%    100.00% |           0      0.00%    100.00% |           0      0.00%    100.00% |           0      0.00%    100.00% |           0      0.00%    100.00% |           0      0.00%    100.00% |           0      0.00%    100.00% |           0      0.00%    100.00% |           0      0.00%    100.00% |           0      0.00%    100.00% |           0      0.00%    100.00% |           0      0.00%    100.00% |           0      0.00%    100.00% |           0      0.00%    100.00% |           0      0.00%    100.00% |           0      0.00%    100.00% |           0      0.00%    100.00% |           0      0.00%    100.00% |           0      0.00%    100.00% |           0      0.00%    100.00% |           0      0.00%    100.00% |           0      0.00%    100.00%
system.ruby.SimicsNetworkPortInterface_Controller.MessageSend::total       160502                      
system.ruby.SimicsNetworkPortInterface_Controller.MessageRecv |       16542     10.31%     10.31% |       80251     50.00%     60.31% |        8128      5.06%     65.37% |        8128      5.06%     70.43% |        7815      4.87%     75.30% |        7617      4.75%     80.05% |        7956      4.96%     85.01% |        7638      4.76%     89.77% |        8045      5.01%     94.78% |        8382      5.22%    100.00% |           0      0.00%    100.00% |           0      0.00%    100.00% |           0      0.00%    100.00% |           0      0.00%    100.00% |           0      0.00%    100.00% |           0      0.00%    100.00% |           0      0.00%    100.00% |           0      0.00%    100.00% |           0      0.00%    100.00% |           0      0.00%    100.00% |           0      0.00%    100.00% |           0      0.00%    100.00% |           0      0.00%    100.00% |           0      0.00%    100.00% |           0      0.00%    100.00% |           0      0.00%    100.00% |           0      0.00%    100.00% |           0      0.00%    100.00% |           0      0.00%    100.00% |           0      0.00%    100.00% |           0      0.00%    100.00% |           0      0.00%    100.00%
system.ruby.SimicsNetworkPortInterface_Controller.MessageRecv::total       160502                      
system.ruby.SimicsNetworkPortInterface_Controller.A.MessageSend |       16542     10.31%     10.31% |       80251     50.00%     60.31% |        8128      5.06%     65.37% |        8128      5.06%     70.43% |        7815      4.87%     75.30% |        7617      4.75%     80.05% |        7956      4.96%     85.01% |        7638      4.76%     89.77% |        8045      5.01%     94.78% |        8382      5.22%    100.00% |           0      0.00%    100.00% |           0      0.00%    100.00% |           0      0.00%    100.00% |           0      0.00%    100.00% |           0      0.00%    100.00% |           0      0.00%    100.00% |           0      0.00%    100.00% |           0      0.00%    100.00% |           0      0.00%    100.00% |           0      0.00%    100.00% |           0      0.00%    100.00% |           0      0.00%    100.00% |           0      0.00%    100.00% |           0      0.00%    100.00% |           0      0.00%    100.00% |           0      0.00%    100.00% |           0      0.00%    100.00% |           0      0.00%    100.00% |           0      0.00%    100.00% |           0      0.00%    100.00% |           0      0.00%    100.00% |           0      0.00%    100.00%
system.ruby.SimicsNetworkPortInterface_Controller.A.MessageSend::total       160502                      
system.ruby.SimicsNetworkPortInterface_Controller.A.MessageRecv |       16542     10.31%     10.31% |       80251     50.00%     60.31% |        8128      5.06%     65.37% |        8128      5.06%     70.43% |        7815      4.87%     75.30% |        7617      4.75%     80.05% |        7956      4.96%     85.01% |        7638      4.76%     89.77% |        8045      5.01%     94.78% |        8382      5.22%    100.00% |           0      0.00%    100.00% |           0      0.00%    100.00% |           0      0.00%    100.00% |           0      0.00%    100.00% |           0      0.00%    100.00% |           0      0.00%    100.00% |           0      0.00%    100.00% |           0      0.00%    100.00% |           0      0.00%    100.00% |           0      0.00%    100.00% |           0      0.00%    100.00% |           0      0.00%    100.00% |           0      0.00%    100.00% |           0      0.00%    100.00% |           0      0.00%    100.00% |           0      0.00%    100.00% |           0      0.00%    100.00% |           0      0.00%    100.00% |           0      0.00%    100.00% |           0      0.00%    100.00% |           0      0.00%    100.00% |           0      0.00%    100.00%
system.ruby.SimicsNetworkPortInterface_Controller.A.MessageRecv::total       160502                      
system.switch_cpus.kern.inst.arm                    0                       # number of arm instructions executed
system.switch_cpus.kern.inst.quiesce                0                       # number of quiesce instructions executed

---------- End Simulation Statistics   ----------
