
---------- Begin Simulation Statistics ----------
sim_seconds                                  0.038818                       # Number of seconds simulated
sim_ticks                                 38818214500                       # Number of ticks simulated
final_tick                               5214986293000                       # Number of ticks from beginning of simulation (restored from checkpoints and never reset)
sim_freq                                 1000000000000                       # Frequency of simulated ticks
host_inst_rate                                 102855                       # Simulator instruction rate (inst/s)
host_op_rate                                   181119                       # Simulator op (including micro ops) rate (op/s)
host_tick_rate                              219845668                       # Simulator tick rate (ticks/s)
host_mem_usage                                3225056                       # Number of bytes of host memory used
host_seconds                                   176.57                       # Real time elapsed on the host
sim_insts                                    18161172                       # Number of instructions simulated
sim_ops                                      31980244                       # Number of ops (including micro ops) simulated
system.voltage_domain.voltage                       1                       # Voltage in Volts
system.clk_domain.clock                           500                       # Clock period in ticks
system.mem_ctrls0.bytes_read::ruby.dir_cntrl0      4688704                       # Number of bytes read from this memory
system.mem_ctrls0.bytes_read::total           4688704                       # Number of bytes read from this memory
system.mem_ctrls0.bytes_written::ruby.dir_cntrl0      2862144                       # Number of bytes written to this memory
system.mem_ctrls0.bytes_written::total        2862144                       # Number of bytes written to this memory
system.mem_ctrls0.num_reads::ruby.dir_cntrl0        73261                       # Number of read requests responded to by this memory
system.mem_ctrls0.num_reads::total              73261                       # Number of read requests responded to by this memory
system.mem_ctrls0.num_writes::ruby.dir_cntrl0        44721                       # Number of write requests responded to by this memory
system.mem_ctrls0.num_writes::total             44721                       # Number of write requests responded to by this memory
system.mem_ctrls0.bw_read::ruby.dir_cntrl0    120786184                       # Total read bandwidth from this memory (bytes/s)
system.mem_ctrls0.bw_read::total            120786184                       # Total read bandwidth from this memory (bytes/s)
system.mem_ctrls0.bw_write::ruby.dir_cntrl0     73731985                       # Write bandwidth from this memory (bytes/s)
system.mem_ctrls0.bw_write::total            73731985                       # Write bandwidth from this memory (bytes/s)
system.mem_ctrls0.bw_total::ruby.dir_cntrl0    194518169                       # Total bandwidth to/from this memory (bytes/s)
system.mem_ctrls0.bw_total::total           194518169                       # Total bandwidth to/from this memory (bytes/s)
system.mem_ctrls0.readReqs                      73261                       # Number of read requests accepted
system.mem_ctrls0.writeReqs                     44721                       # Number of write requests accepted
system.mem_ctrls0.readBursts                    73261                       # Number of DRAM read bursts, including those serviced by the write queue
system.mem_ctrls0.writeBursts                   44721                       # Number of DRAM write bursts, including those merged in the write queue
system.mem_ctrls0.bytesReadDRAM               4687872                       # Total number of bytes read from DRAM
system.mem_ctrls0.bytesReadWrQ                    832                       # Total number of bytes read from write queue
system.mem_ctrls0.bytesWritten                2862080                       # Total number of bytes written to DRAM
system.mem_ctrls0.bytesReadSys                4688704                       # Total read bytes from the system interface side
system.mem_ctrls0.bytesWrittenSys             2862144                       # Total written bytes from the system interface side
system.mem_ctrls0.servicedByWrQ                    13                       # Number of DRAM read bursts serviced by the write queue
system.mem_ctrls0.mergedWrBursts                    0                       # Number of DRAM write bursts merged with an existing one
system.mem_ctrls0.neitherReadNorWriteReqs            0                       # Number of requests that are neither read nor write
system.mem_ctrls0.perBankRdBursts::0             4426                       # Per bank write bursts
system.mem_ctrls0.perBankRdBursts::1             4891                       # Per bank write bursts
system.mem_ctrls0.perBankRdBursts::2             4541                       # Per bank write bursts
system.mem_ctrls0.perBankRdBursts::3             4886                       # Per bank write bursts
system.mem_ctrls0.perBankRdBursts::4             4634                       # Per bank write bursts
system.mem_ctrls0.perBankRdBursts::5             4726                       # Per bank write bursts
system.mem_ctrls0.perBankRdBursts::6             4552                       # Per bank write bursts
system.mem_ctrls0.perBankRdBursts::7             4523                       # Per bank write bursts
system.mem_ctrls0.perBankRdBursts::8             4505                       # Per bank write bursts
system.mem_ctrls0.perBankRdBursts::9             4793                       # Per bank write bursts
system.mem_ctrls0.perBankRdBursts::10            4517                       # Per bank write bursts
system.mem_ctrls0.perBankRdBursts::11            4732                       # Per bank write bursts
system.mem_ctrls0.perBankRdBursts::12            4350                       # Per bank write bursts
system.mem_ctrls0.perBankRdBursts::13            4197                       # Per bank write bursts
system.mem_ctrls0.perBankRdBursts::14            4469                       # Per bank write bursts
system.mem_ctrls0.perBankRdBursts::15            4506                       # Per bank write bursts
system.mem_ctrls0.perBankWrBursts::0             2818                       # Per bank write bursts
system.mem_ctrls0.perBankWrBursts::1             2810                       # Per bank write bursts
system.mem_ctrls0.perBankWrBursts::2             2793                       # Per bank write bursts
system.mem_ctrls0.perBankWrBursts::3             2882                       # Per bank write bursts
system.mem_ctrls0.perBankWrBursts::4             2801                       # Per bank write bursts
system.mem_ctrls0.perBankWrBursts::5             2939                       # Per bank write bursts
system.mem_ctrls0.perBankWrBursts::6             2769                       # Per bank write bursts
system.mem_ctrls0.perBankWrBursts::7             2846                       # Per bank write bursts
system.mem_ctrls0.perBankWrBursts::8             2739                       # Per bank write bursts
system.mem_ctrls0.perBankWrBursts::9             2919                       # Per bank write bursts
system.mem_ctrls0.perBankWrBursts::10            2766                       # Per bank write bursts
system.mem_ctrls0.perBankWrBursts::11            2698                       # Per bank write bursts
system.mem_ctrls0.perBankWrBursts::12            2633                       # Per bank write bursts
system.mem_ctrls0.perBankWrBursts::13            2670                       # Per bank write bursts
system.mem_ctrls0.perBankWrBursts::14            2876                       # Per bank write bursts
system.mem_ctrls0.perBankWrBursts::15            2761                       # Per bank write bursts
system.mem_ctrls0.numRdRetry                      362                       # Number of times read queue was full causing retry
system.mem_ctrls0.numWrRetry                     2210                       # Number of times write queue was full causing retry
system.mem_ctrls0.totGap                  38817702000                       # Total gap between requests
system.mem_ctrls0.readPktSize::0                    0                       # Read request sizes (log2)
system.mem_ctrls0.readPktSize::1                    0                       # Read request sizes (log2)
system.mem_ctrls0.readPktSize::2                    0                       # Read request sizes (log2)
system.mem_ctrls0.readPktSize::3                    0                       # Read request sizes (log2)
system.mem_ctrls0.readPktSize::4                    0                       # Read request sizes (log2)
system.mem_ctrls0.readPktSize::5                    0                       # Read request sizes (log2)
system.mem_ctrls0.readPktSize::6                73261                       # Read request sizes (log2)
system.mem_ctrls0.writePktSize::0                   0                       # Write request sizes (log2)
system.mem_ctrls0.writePktSize::1                   0                       # Write request sizes (log2)
system.mem_ctrls0.writePktSize::2                   0                       # Write request sizes (log2)
system.mem_ctrls0.writePktSize::3                   0                       # Write request sizes (log2)
system.mem_ctrls0.writePktSize::4                   0                       # Write request sizes (log2)
system.mem_ctrls0.writePktSize::5                   0                       # Write request sizes (log2)
system.mem_ctrls0.writePktSize::6               44721                       # Write request sizes (log2)
system.mem_ctrls0.rdQLenPdf::0                  45464                       # What read queue length does an incoming req see
system.mem_ctrls0.rdQLenPdf::1                   4053                       # What read queue length does an incoming req see
system.mem_ctrls0.rdQLenPdf::2                   3419                       # What read queue length does an incoming req see
system.mem_ctrls0.rdQLenPdf::3                   2782                       # What read queue length does an incoming req see
system.mem_ctrls0.rdQLenPdf::4                   2405                       # What read queue length does an incoming req see
system.mem_ctrls0.rdQLenPdf::5                   1996                       # What read queue length does an incoming req see
system.mem_ctrls0.rdQLenPdf::6                   1650                       # What read queue length does an incoming req see
system.mem_ctrls0.rdQLenPdf::7                   1361                       # What read queue length does an incoming req see
system.mem_ctrls0.rdQLenPdf::8                   1258                       # What read queue length does an incoming req see
system.mem_ctrls0.rdQLenPdf::9                   1077                       # What read queue length does an incoming req see
system.mem_ctrls0.rdQLenPdf::10                   887                       # What read queue length does an incoming req see
system.mem_ctrls0.rdQLenPdf::11                   782                       # What read queue length does an incoming req see
system.mem_ctrls0.rdQLenPdf::12                   697                       # What read queue length does an incoming req see
system.mem_ctrls0.rdQLenPdf::13                   594                       # What read queue length does an incoming req see
system.mem_ctrls0.rdQLenPdf::14                   559                       # What read queue length does an incoming req see
system.mem_ctrls0.rdQLenPdf::15                   459                       # What read queue length does an incoming req see
system.mem_ctrls0.rdQLenPdf::16                   407                       # What read queue length does an incoming req see
system.mem_ctrls0.rdQLenPdf::17                   366                       # What read queue length does an incoming req see
system.mem_ctrls0.rdQLenPdf::18                   329                       # What read queue length does an incoming req see
system.mem_ctrls0.rdQLenPdf::19                   293                       # What read queue length does an incoming req see
system.mem_ctrls0.rdQLenPdf::20                   252                       # What read queue length does an incoming req see
system.mem_ctrls0.rdQLenPdf::21                   228                       # What read queue length does an incoming req see
system.mem_ctrls0.rdQLenPdf::22                   225                       # What read queue length does an incoming req see
system.mem_ctrls0.rdQLenPdf::23                   206                       # What read queue length does an incoming req see
system.mem_ctrls0.rdQLenPdf::24                   181                       # What read queue length does an incoming req see
system.mem_ctrls0.rdQLenPdf::25                   167                       # What read queue length does an incoming req see
system.mem_ctrls0.rdQLenPdf::26                   155                       # What read queue length does an incoming req see
system.mem_ctrls0.rdQLenPdf::27                   144                       # What read queue length does an incoming req see
system.mem_ctrls0.rdQLenPdf::28                   134                       # What read queue length does an incoming req see
system.mem_ctrls0.rdQLenPdf::29                   125                       # What read queue length does an incoming req see
system.mem_ctrls0.rdQLenPdf::30                   117                       # What read queue length does an incoming req see
system.mem_ctrls0.rdQLenPdf::31                   476                       # What read queue length does an incoming req see
system.mem_ctrls0.wrQLenPdf::0                   7717                       # What write queue length does an incoming req see
system.mem_ctrls0.wrQLenPdf::1                   7986                       # What write queue length does an incoming req see
system.mem_ctrls0.wrQLenPdf::2                   8147                       # What write queue length does an incoming req see
system.mem_ctrls0.wrQLenPdf::3                   8230                       # What write queue length does an incoming req see
system.mem_ctrls0.wrQLenPdf::4                   8337                       # What write queue length does an incoming req see
system.mem_ctrls0.wrQLenPdf::5                    791                       # What write queue length does an incoming req see
system.mem_ctrls0.wrQLenPdf::6                    709                       # What write queue length does an incoming req see
system.mem_ctrls0.wrQLenPdf::7                   2804                       # What write queue length does an incoming req see
system.mem_ctrls0.bytesPerActivate::samples        32295                       # Bytes accessed per row activation
system.mem_ctrls0.bytesPerActivate::mean   233.745162                       # Bytes accessed per row activation
system.mem_ctrls0.bytesPerActivate::gmean   157.547319                       # Bytes accessed per row activation
system.mem_ctrls0.bytesPerActivate::stdev   235.287430                       # Bytes accessed per row activation
system.mem_ctrls0.bytesPerActivate::0-127        12578     38.95%     38.95% # Bytes accessed per row activation
system.mem_ctrls0.bytesPerActivate::128-255         7175     22.22%     61.16% # Bytes accessed per row activation
system.mem_ctrls0.bytesPerActivate::256-383         8074     25.00%     86.17% # Bytes accessed per row activation
system.mem_ctrls0.bytesPerActivate::384-511         1064      3.29%     89.46% # Bytes accessed per row activation
system.mem_ctrls0.bytesPerActivate::512-639          748      2.32%     91.78% # Bytes accessed per row activation
system.mem_ctrls0.bytesPerActivate::640-767          560      1.73%     93.51% # Bytes accessed per row activation
system.mem_ctrls0.bytesPerActivate::768-895          441      1.37%     94.88% # Bytes accessed per row activation
system.mem_ctrls0.bytesPerActivate::896-1023          420      1.30%     96.18% # Bytes accessed per row activation
system.mem_ctrls0.bytesPerActivate::1024-1151         1235      3.82%    100.00% # Bytes accessed per row activation
system.mem_ctrls0.bytesPerActivate::total        32295                       # Bytes accessed per row activation
system.mem_ctrls0.rdPerTurnAround::samples         7951                       # Reads before turning the bus around for writes
system.mem_ctrls0.rdPerTurnAround::mean      9.210791                       # Reads before turning the bus around for writes
system.mem_ctrls0.rdPerTurnAround::stdev    46.063643                       # Reads before turning the bus around for writes
system.mem_ctrls0.rdPerTurnAround::0-127         7944     99.91%     99.91% # Reads before turning the bus around for writes
system.mem_ctrls0.rdPerTurnAround::128-255            6      0.08%     99.99% # Reads before turning the bus around for writes
system.mem_ctrls0.rdPerTurnAround::3968-4095            1      0.01%    100.00% # Reads before turning the bus around for writes
system.mem_ctrls0.rdPerTurnAround::total         7951                       # Reads before turning the bus around for writes
system.mem_ctrls0.wrPerTurnAround::samples         7951                       # Writes before turning the bus around for reads
system.mem_ctrls0.wrPerTurnAround::mean      5.624450                       # Writes before turning the bus around for reads
system.mem_ctrls0.wrPerTurnAround::gmean     5.391896                       # Writes before turning the bus around for reads
system.mem_ctrls0.wrPerTurnAround::stdev     2.231298                       # Writes before turning the bus around for reads
system.mem_ctrls0.wrPerTurnAround::4-7           7422     93.35%     93.35% # Writes before turning the bus around for reads
system.mem_ctrls0.wrPerTurnAround::8-11           162      2.04%     95.38% # Writes before turning the bus around for reads
system.mem_ctrls0.wrPerTurnAround::12-15          107      1.35%     96.73% # Writes before turning the bus around for reads
system.mem_ctrls0.wrPerTurnAround::16-19          260      3.27%    100.00% # Writes before turning the bus around for reads
system.mem_ctrls0.wrPerTurnAround::total         7951                       # Writes before turning the bus around for reads
system.mem_ctrls0.totQLat                  3443855941                       # Total ticks spent queuing
system.mem_ctrls0.totMemAccLat             4817255941                       # Total ticks spent from burst creation until serviced by the DRAM
system.mem_ctrls0.totBusLat                 366240000                       # Total ticks spent in databus transfers
system.mem_ctrls0.avgQLat                    47016.38                       # Average queueing delay per DRAM burst
system.mem_ctrls0.avgBusLat                   5000.00                       # Average bus latency per DRAM burst
system.mem_ctrls0.avgMemAccLat               65766.38                       # Average memory access latency per DRAM burst
system.mem_ctrls0.avgRdBW                      120.76                       # Average DRAM read bandwidth in MiByte/s
system.mem_ctrls0.avgWrBW                       73.73                       # Average achieved write bandwidth in MiByte/s
system.mem_ctrls0.avgRdBWSys                   120.79                       # Average system read bandwidth in MiByte/s
system.mem_ctrls0.avgWrBWSys                    73.73                       # Average system write bandwidth in MiByte/s
system.mem_ctrls0.peakBW                     12800.00                       # Theoretical peak bandwidth in MiByte/s
system.mem_ctrls0.busUtil                        1.52                       # Data bus utilization in percentage
system.mem_ctrls0.busUtilRead                    0.94                       # Data bus utilization in percentage for reads
system.mem_ctrls0.busUtilWrite                   0.58                       # Data bus utilization in percentage for writes
system.mem_ctrls0.avgRdQLen                      1.12                       # Average read queue length when enqueuing
system.mem_ctrls0.avgWrQLen                      2.87                       # Average write queue length when enqueuing
system.mem_ctrls0.readRowHits                   56239                       # Number of row buffer hits during reads
system.mem_ctrls0.writeRowHits                  29424                       # Number of row buffer hits during writes
system.mem_ctrls0.readRowHitRate                76.78                       # Row buffer hit rate for reads
system.mem_ctrls0.writeRowHitRate               65.79                       # Row buffer hit rate for writes
system.mem_ctrls0.avgGap                    329013.76                       # Average gap between requests
system.mem_ctrls0.pageHitRate                   72.61                       # Row buffer hit rate, read and write combined
system.mem_ctrls0.memoryStateTime::IDLE   10429479500                       # Time in different power states
system.mem_ctrls0.memoryStateTime::REF     1296100000                       # Time in different power states
system.mem_ctrls0.memoryStateTime::PRE_PDN            0                       # Time in different power states
system.mem_ctrls0.memoryStateTime::ACT    27089292000                       # Time in different power states
system.mem_ctrls0.memoryStateTime::ACT_PDN            0                       # Time in different power states
system.mem_ctrls0.actEnergy::0              126176400                       # Energy for activate commands per rank (pJ)
system.mem_ctrls0.actEnergy::1              117936000                       # Energy for activate commands per rank (pJ)
system.mem_ctrls0.preEnergy::0               68846250                       # Energy for precharge commands per rank (pJ)
system.mem_ctrls0.preEnergy::1               64350000                       # Energy for precharge commands per rank (pJ)
system.mem_ctrls0.readEnergy::0             289933800                       # Energy for read commands per rank (pJ)
system.mem_ctrls0.readEnergy::1             281244600                       # Energy for read commands per rank (pJ)
system.mem_ctrls0.writeEnergy::0            146797920                       # Energy for write commands per rank (pJ)
system.mem_ctrls0.writeEnergy::1            142955280                       # Energy for write commands per rank (pJ)
system.mem_ctrls0.refreshEnergy::0         2535171600                       # Energy for refresh commands per rank (pJ)
system.mem_ctrls0.refreshEnergy::1         2535171600                       # Energy for refresh commands per rank (pJ)
system.mem_ctrls0.actBackEnergy::0        14168942010                       # Energy for active background per rank (pJ)
system.mem_ctrls0.actBackEnergy::1        13790917440                       # Energy for active background per rank (pJ)
system.mem_ctrls0.preBackEnergy::0        10859933250                       # Energy for precharge background per rank (pJ)
system.mem_ctrls0.preBackEnergy::1        11191533750                       # Energy for precharge background per rank (pJ)
system.mem_ctrls0.totalEnergy::0          28195801230                       # Total energy per rank (pJ)
system.mem_ctrls0.totalEnergy::1          28124108670                       # Total energy per rank (pJ)
system.mem_ctrls0.averagePower::0          726.420388                       # Core power per rank (mW)
system.mem_ctrls0.averagePower::1          724.573342                       # Core power per rank (mW)
system.mem_ctrls1.bytes_read::ruby.dir_cntrl1      4564288                       # Number of bytes read from this memory
system.mem_ctrls1.bytes_read::total           4564288                       # Number of bytes read from this memory
system.mem_ctrls1.bytes_written::ruby.dir_cntrl1      2746624                       # Number of bytes written to this memory
system.mem_ctrls1.bytes_written::total        2746624                       # Number of bytes written to this memory
system.mem_ctrls1.num_reads::ruby.dir_cntrl1        71317                       # Number of read requests responded to by this memory
system.mem_ctrls1.num_reads::total              71317                       # Number of read requests responded to by this memory
system.mem_ctrls1.num_writes::ruby.dir_cntrl1        42916                       # Number of write requests responded to by this memory
system.mem_ctrls1.num_writes::total             42916                       # Number of write requests responded to by this memory
system.mem_ctrls1.bw_read::ruby.dir_cntrl1    117581091                       # Total read bandwidth from this memory (bytes/s)
system.mem_ctrls1.bw_read::total            117581091                       # Total read bandwidth from this memory (bytes/s)
system.mem_ctrls1.bw_write::ruby.dir_cntrl1     70756062                       # Write bandwidth from this memory (bytes/s)
system.mem_ctrls1.bw_write::total            70756062                       # Write bandwidth from this memory (bytes/s)
system.mem_ctrls1.bw_total::ruby.dir_cntrl1    188337153                       # Total bandwidth to/from this memory (bytes/s)
system.mem_ctrls1.bw_total::total           188337153                       # Total bandwidth to/from this memory (bytes/s)
system.mem_ctrls1.readReqs                      71317                       # Number of read requests accepted
system.mem_ctrls1.writeReqs                     42916                       # Number of write requests accepted
system.mem_ctrls1.readBursts                    71317                       # Number of DRAM read bursts, including those serviced by the write queue
system.mem_ctrls1.writeBursts                   42916                       # Number of DRAM write bursts, including those merged in the write queue
system.mem_ctrls1.bytesReadDRAM               4563264                       # Total number of bytes read from DRAM
system.mem_ctrls1.bytesReadWrQ                   1024                       # Total number of bytes read from write queue
system.mem_ctrls1.bytesWritten                2746368                       # Total number of bytes written to DRAM
system.mem_ctrls1.bytesReadSys                4564288                       # Total read bytes from the system interface side
system.mem_ctrls1.bytesWrittenSys             2746624                       # Total written bytes from the system interface side
system.mem_ctrls1.servicedByWrQ                    16                       # Number of DRAM read bursts serviced by the write queue
system.mem_ctrls1.mergedWrBursts                    0                       # Number of DRAM write bursts merged with an existing one
system.mem_ctrls1.neitherReadNorWriteReqs            0                       # Number of requests that are neither read nor write
system.mem_ctrls1.perBankRdBursts::0             4309                       # Per bank write bursts
system.mem_ctrls1.perBankRdBursts::1             4752                       # Per bank write bursts
system.mem_ctrls1.perBankRdBursts::2             4420                       # Per bank write bursts
system.mem_ctrls1.perBankRdBursts::3             4767                       # Per bank write bursts
system.mem_ctrls1.perBankRdBursts::4             4524                       # Per bank write bursts
system.mem_ctrls1.perBankRdBursts::5             4631                       # Per bank write bursts
system.mem_ctrls1.perBankRdBursts::6             4426                       # Per bank write bursts
system.mem_ctrls1.perBankRdBursts::7             4426                       # Per bank write bursts
system.mem_ctrls1.perBankRdBursts::8             4376                       # Per bank write bursts
system.mem_ctrls1.perBankRdBursts::9             4671                       # Per bank write bursts
system.mem_ctrls1.perBankRdBursts::10            4400                       # Per bank write bursts
system.mem_ctrls1.perBankRdBursts::11            4614                       # Per bank write bursts
system.mem_ctrls1.perBankRdBursts::12            4228                       # Per bank write bursts
system.mem_ctrls1.perBankRdBursts::13            4084                       # Per bank write bursts
system.mem_ctrls1.perBankRdBursts::14            4274                       # Per bank write bursts
system.mem_ctrls1.perBankRdBursts::15            4399                       # Per bank write bursts
system.mem_ctrls1.perBankWrBursts::0             2710                       # Per bank write bursts
system.mem_ctrls1.perBankWrBursts::1             2714                       # Per bank write bursts
system.mem_ctrls1.perBankWrBursts::2             2691                       # Per bank write bursts
system.mem_ctrls1.perBankWrBursts::3             2773                       # Per bank write bursts
system.mem_ctrls1.perBankWrBursts::4             2699                       # Per bank write bursts
system.mem_ctrls1.perBankWrBursts::5             2829                       # Per bank write bursts
system.mem_ctrls1.perBankWrBursts::6             2643                       # Per bank write bursts
system.mem_ctrls1.perBankWrBursts::7             2732                       # Per bank write bursts
system.mem_ctrls1.perBankWrBursts::8             2629                       # Per bank write bursts
system.mem_ctrls1.perBankWrBursts::9             2805                       # Per bank write bursts
system.mem_ctrls1.perBankWrBursts::10            2661                       # Per bank write bursts
system.mem_ctrls1.perBankWrBursts::11            2586                       # Per bank write bursts
system.mem_ctrls1.perBankWrBursts::12            2527                       # Per bank write bursts
system.mem_ctrls1.perBankWrBursts::13            2553                       # Per bank write bursts
system.mem_ctrls1.perBankWrBursts::14            2708                       # Per bank write bursts
system.mem_ctrls1.perBankWrBursts::15            2652                       # Per bank write bursts
system.mem_ctrls1.numRdRetry                      355                       # Number of times read queue was full causing retry
system.mem_ctrls1.numWrRetry                     2115                       # Number of times write queue was full causing retry
system.mem_ctrls1.totGap                  38817450000                       # Total gap between requests
system.mem_ctrls1.readPktSize::0                    0                       # Read request sizes (log2)
system.mem_ctrls1.readPktSize::1                    0                       # Read request sizes (log2)
system.mem_ctrls1.readPktSize::2                    0                       # Read request sizes (log2)
system.mem_ctrls1.readPktSize::3                    0                       # Read request sizes (log2)
system.mem_ctrls1.readPktSize::4                    0                       # Read request sizes (log2)
system.mem_ctrls1.readPktSize::5                    0                       # Read request sizes (log2)
system.mem_ctrls1.readPktSize::6                71317                       # Read request sizes (log2)
system.mem_ctrls1.writePktSize::0                   0                       # Write request sizes (log2)
system.mem_ctrls1.writePktSize::1                   0                       # Write request sizes (log2)
system.mem_ctrls1.writePktSize::2                   0                       # Write request sizes (log2)
system.mem_ctrls1.writePktSize::3                   0                       # Write request sizes (log2)
system.mem_ctrls1.writePktSize::4                   0                       # Write request sizes (log2)
system.mem_ctrls1.writePktSize::5                   0                       # Write request sizes (log2)
system.mem_ctrls1.writePktSize::6               42916                       # Write request sizes (log2)
system.mem_ctrls1.rdQLenPdf::0                  44592                       # What read queue length does an incoming req see
system.mem_ctrls1.rdQLenPdf::1                   3434                       # What read queue length does an incoming req see
system.mem_ctrls1.rdQLenPdf::2                   3128                       # What read queue length does an incoming req see
system.mem_ctrls1.rdQLenPdf::3                   2758                       # What read queue length does an incoming req see
system.mem_ctrls1.rdQLenPdf::4                   2402                       # What read queue length does an incoming req see
system.mem_ctrls1.rdQLenPdf::5                   1986                       # What read queue length does an incoming req see
system.mem_ctrls1.rdQLenPdf::6                   1701                       # What read queue length does an incoming req see
system.mem_ctrls1.rdQLenPdf::7                   1459                       # What read queue length does an incoming req see
system.mem_ctrls1.rdQLenPdf::8                   1229                       # What read queue length does an incoming req see
system.mem_ctrls1.rdQLenPdf::9                   1046                       # What read queue length does an incoming req see
system.mem_ctrls1.rdQLenPdf::10                   935                       # What read queue length does an incoming req see
system.mem_ctrls1.rdQLenPdf::11                   800                       # What read queue length does an incoming req see
system.mem_ctrls1.rdQLenPdf::12                   710                       # What read queue length does an incoming req see
system.mem_ctrls1.rdQLenPdf::13                   614                       # What read queue length does an incoming req see
system.mem_ctrls1.rdQLenPdf::14                   504                       # What read queue length does an incoming req see
system.mem_ctrls1.rdQLenPdf::15                   427                       # What read queue length does an incoming req see
system.mem_ctrls1.rdQLenPdf::16                   380                       # What read queue length does an incoming req see
system.mem_ctrls1.rdQLenPdf::17                   340                       # What read queue length does an incoming req see
system.mem_ctrls1.rdQLenPdf::18                   307                       # What read queue length does an incoming req see
system.mem_ctrls1.rdQLenPdf::19                   298                       # What read queue length does an incoming req see
system.mem_ctrls1.rdQLenPdf::20                   250                       # What read queue length does an incoming req see
system.mem_ctrls1.rdQLenPdf::21                   221                       # What read queue length does an incoming req see
system.mem_ctrls1.rdQLenPdf::22                   189                       # What read queue length does an incoming req see
system.mem_ctrls1.rdQLenPdf::23                   176                       # What read queue length does an incoming req see
system.mem_ctrls1.rdQLenPdf::24                   167                       # What read queue length does an incoming req see
system.mem_ctrls1.rdQLenPdf::25                   161                       # What read queue length does an incoming req see
system.mem_ctrls1.rdQLenPdf::26                   137                       # What read queue length does an incoming req see
system.mem_ctrls1.rdQLenPdf::27                   138                       # What read queue length does an incoming req see
system.mem_ctrls1.rdQLenPdf::28                   126                       # What read queue length does an incoming req see
system.mem_ctrls1.rdQLenPdf::29                   123                       # What read queue length does an incoming req see
system.mem_ctrls1.rdQLenPdf::30                    96                       # What read queue length does an incoming req see
system.mem_ctrls1.rdQLenPdf::31                   467                       # What read queue length does an incoming req see
system.mem_ctrls1.wrQLenPdf::0                   7413                       # What write queue length does an incoming req see
system.mem_ctrls1.wrQLenPdf::1                   7596                       # What write queue length does an incoming req see
system.mem_ctrls1.wrQLenPdf::2                   7777                       # What write queue length does an incoming req see
system.mem_ctrls1.wrQLenPdf::3                   7890                       # What write queue length does an incoming req see
system.mem_ctrls1.wrQLenPdf::4                   7968                       # What write queue length does an incoming req see
system.mem_ctrls1.wrQLenPdf::5                    748                       # What write queue length does an incoming req see
system.mem_ctrls1.wrQLenPdf::6                    734                       # What write queue length does an incoming req see
system.mem_ctrls1.wrQLenPdf::7                   2790                       # What write queue length does an incoming req see
system.mem_ctrls1.bytesPerActivate::samples        28608                       # Bytes accessed per row activation
system.mem_ctrls1.bytesPerActivate::mean   255.483221                       # Bytes accessed per row activation
system.mem_ctrls1.bytesPerActivate::gmean   175.914044                       # Bytes accessed per row activation
system.mem_ctrls1.bytesPerActivate::stdev   240.692596                       # Bytes accessed per row activation
system.mem_ctrls1.bytesPerActivate::0-127         9295     32.49%     32.49% # Bytes accessed per row activation
system.mem_ctrls1.bytesPerActivate::128-255         6634     23.19%     55.68% # Bytes accessed per row activation
system.mem_ctrls1.bytesPerActivate::256-383         8021     28.04%     83.72% # Bytes accessed per row activation
system.mem_ctrls1.bytesPerActivate::384-511         1203      4.21%     87.92% # Bytes accessed per row activation
system.mem_ctrls1.bytesPerActivate::512-639          841      2.94%     90.86% # Bytes accessed per row activation
system.mem_ctrls1.bytesPerActivate::640-767          563      1.97%     92.83% # Bytes accessed per row activation
system.mem_ctrls1.bytesPerActivate::768-895          440      1.54%     94.37% # Bytes accessed per row activation
system.mem_ctrls1.bytesPerActivate::896-1023          444      1.55%     95.92% # Bytes accessed per row activation
system.mem_ctrls1.bytesPerActivate::1024-1151         1167      4.08%    100.00% # Bytes accessed per row activation
system.mem_ctrls1.bytesPerActivate::total        28608                       # Bytes accessed per row activation
system.mem_ctrls1.rdPerTurnAround::samples         7634                       # Reads before turning the bus around for writes
system.mem_ctrls1.rdPerTurnAround::mean      9.335735                       # Reads before turning the bus around for writes
system.mem_ctrls1.rdPerTurnAround::stdev    37.441703                       # Reads before turning the bus around for writes
system.mem_ctrls1.rdPerTurnAround::0-127         7626     99.90%     99.90% # Reads before turning the bus around for writes
system.mem_ctrls1.rdPerTurnAround::128-255            6      0.08%     99.97% # Reads before turning the bus around for writes
system.mem_ctrls1.rdPerTurnAround::1152-1279            1      0.01%     99.99% # Reads before turning the bus around for writes
system.mem_ctrls1.rdPerTurnAround::2816-2943            1      0.01%    100.00% # Reads before turning the bus around for writes
system.mem_ctrls1.rdPerTurnAround::total         7634                       # Reads before turning the bus around for writes
system.mem_ctrls1.wrPerTurnAround::samples         7634                       # Writes before turning the bus around for reads
system.mem_ctrls1.wrPerTurnAround::mean      5.621168                       # Writes before turning the bus around for reads
system.mem_ctrls1.wrPerTurnAround::gmean     5.388779                       # Writes before turning the bus around for reads
system.mem_ctrls1.wrPerTurnAround::stdev     2.224597                       # Writes before turning the bus around for reads
system.mem_ctrls1.wrPerTurnAround::4-7           7111     93.15%     93.15% # Writes before turning the bus around for reads
system.mem_ctrls1.wrPerTurnAround::8-11           170      2.23%     95.38% # Writes before turning the bus around for reads
system.mem_ctrls1.wrPerTurnAround::12-15          113      1.48%     96.86% # Writes before turning the bus around for reads
system.mem_ctrls1.wrPerTurnAround::16-19          240      3.14%    100.00% # Writes before turning the bus around for reads
system.mem_ctrls1.wrPerTurnAround::total         7634                       # Writes before turning the bus around for reads
system.mem_ctrls1.totQLat                  3145506643                       # Total ticks spent queuing
system.mem_ctrls1.totMemAccLat             4482400393                       # Total ticks spent from burst creation until serviced by the DRAM
system.mem_ctrls1.totBusLat                 356505000                       # Total ticks spent in databus transfers
system.mem_ctrls1.avgQLat                    44115.88                       # Average queueing delay per DRAM burst
system.mem_ctrls1.avgBusLat                   5000.00                       # Average bus latency per DRAM burst
system.mem_ctrls1.avgMemAccLat               62865.88                       # Average memory access latency per DRAM burst
system.mem_ctrls1.avgRdBW                      117.55                       # Average DRAM read bandwidth in MiByte/s
system.mem_ctrls1.avgWrBW                       70.75                       # Average achieved write bandwidth in MiByte/s
system.mem_ctrls1.avgRdBWSys                   117.58                       # Average system read bandwidth in MiByte/s
system.mem_ctrls1.avgWrBWSys                    70.76                       # Average system write bandwidth in MiByte/s
system.mem_ctrls1.peakBW                     12800.00                       # Theoretical peak bandwidth in MiByte/s
system.mem_ctrls1.busUtil                        1.47                       # Data bus utilization in percentage
system.mem_ctrls1.busUtilRead                    0.92                       # Data bus utilization in percentage for reads
system.mem_ctrls1.busUtilWrite                   0.55                       # Data bus utilization in percentage for writes
system.mem_ctrls1.avgRdQLen                      1.11                       # Average read queue length when enqueuing
system.mem_ctrls1.avgWrQLen                      2.86                       # Average write queue length when enqueuing
system.mem_ctrls1.readRowHits                   55767                       # Number of row buffer hits during reads
system.mem_ctrls1.writeRowHits                  29834                       # Number of row buffer hits during writes
system.mem_ctrls1.readRowHitRate                78.21                       # Row buffer hit rate for reads
system.mem_ctrls1.writeRowHitRate               69.52                       # Row buffer hit rate for writes
system.mem_ctrls1.avgGap                    339809.42                       # Average gap between requests
system.mem_ctrls1.pageHitRate                   74.95                       # Row buffer hit rate, read and write combined
system.mem_ctrls1.memoryStateTime::IDLE   10618167000                       # Time in different power states
system.mem_ctrls1.memoryStateTime::REF     1296100000                       # Time in different power states
system.mem_ctrls1.memoryStateTime::PRE_PDN            0                       # Time in different power states
system.mem_ctrls1.memoryStateTime::ACT    26900942000                       # Time in different power states
system.mem_ctrls1.memoryStateTime::ACT_PDN            0                       # Time in different power states
system.mem_ctrls1.actEnergy::0              112833000                       # Energy for activate commands per rank (pJ)
system.mem_ctrls1.actEnergy::1              103435920                       # Energy for activate commands per rank (pJ)
system.mem_ctrls1.preEnergy::0               61565625                       # Energy for precharge commands per rank (pJ)
system.mem_ctrls1.preEnergy::1               56438250                       # Energy for precharge commands per rank (pJ)
system.mem_ctrls1.readEnergy::0             282750000                       # Energy for read commands per rank (pJ)
system.mem_ctrls1.readEnergy::1             273280800                       # Energy for read commands per rank (pJ)
system.mem_ctrls1.writeEnergy::0            141205680                       # Energy for write commands per rank (pJ)
system.mem_ctrls1.writeEnergy::1            136864080                       # Energy for write commands per rank (pJ)
system.mem_ctrls1.refreshEnergy::0         2535171600                       # Energy for refresh commands per rank (pJ)
system.mem_ctrls1.refreshEnergy::1         2535171600                       # Energy for refresh commands per rank (pJ)
system.mem_ctrls1.actBackEnergy::0        14035487625                       # Energy for active background per rank (pJ)
system.mem_ctrls1.actBackEnergy::1        13361193585                       # Energy for active background per rank (pJ)
system.mem_ctrls1.preBackEnergy::0        10976998500                       # Energy for precharge background per rank (pJ)
system.mem_ctrls1.preBackEnergy::1        11568484500                       # Energy for precharge background per rank (pJ)
system.mem_ctrls1.totalEnergy::0          28146012030                       # Total energy per rank (pJ)
system.mem_ctrls1.totalEnergy::1          28034868735                       # Total energy per rank (pJ)
system.mem_ctrls1.averagePower::0          725.137648                       # Core power per rank (mW)
system.mem_ctrls1.averagePower::1          722.274216                       # Core power per rank (mW)
system.mem_ctrls2.bytes_read::ruby.dir_cntrl2      4566656                       # Number of bytes read from this memory
system.mem_ctrls2.bytes_read::total           4566656                       # Number of bytes read from this memory
system.mem_ctrls2.bytes_written::ruby.dir_cntrl2      2748160                       # Number of bytes written to this memory
system.mem_ctrls2.bytes_written::total        2748160                       # Number of bytes written to this memory
system.mem_ctrls2.num_reads::ruby.dir_cntrl2        71354                       # Number of read requests responded to by this memory
system.mem_ctrls2.num_reads::total              71354                       # Number of read requests responded to by this memory
system.mem_ctrls2.num_writes::ruby.dir_cntrl2        42940                       # Number of write requests responded to by this memory
system.mem_ctrls2.num_writes::total             42940                       # Number of write requests responded to by this memory
system.mem_ctrls2.bw_read::ruby.dir_cntrl2    117642093                       # Total read bandwidth from this memory (bytes/s)
system.mem_ctrls2.bw_read::total            117642093                       # Total read bandwidth from this memory (bytes/s)
system.mem_ctrls2.bw_write::ruby.dir_cntrl2     70795631                       # Write bandwidth from this memory (bytes/s)
system.mem_ctrls2.bw_write::total            70795631                       # Write bandwidth from this memory (bytes/s)
system.mem_ctrls2.bw_total::ruby.dir_cntrl2    188437724                       # Total bandwidth to/from this memory (bytes/s)
system.mem_ctrls2.bw_total::total           188437724                       # Total bandwidth to/from this memory (bytes/s)
system.mem_ctrls2.readReqs                      71354                       # Number of read requests accepted
system.mem_ctrls2.writeReqs                     42940                       # Number of write requests accepted
system.mem_ctrls2.readBursts                    71354                       # Number of DRAM read bursts, including those serviced by the write queue
system.mem_ctrls2.writeBursts                   42940                       # Number of DRAM write bursts, including those merged in the write queue
system.mem_ctrls2.bytesReadDRAM               4565632                       # Total number of bytes read from DRAM
system.mem_ctrls2.bytesReadWrQ                   1024                       # Total number of bytes read from write queue
system.mem_ctrls2.bytesWritten                2748160                       # Total number of bytes written to DRAM
system.mem_ctrls2.bytesReadSys                4566656                       # Total read bytes from the system interface side
system.mem_ctrls2.bytesWrittenSys             2748160                       # Total written bytes from the system interface side
system.mem_ctrls2.servicedByWrQ                    16                       # Number of DRAM read bursts serviced by the write queue
system.mem_ctrls2.mergedWrBursts                    0                       # Number of DRAM write bursts merged with an existing one
system.mem_ctrls2.neitherReadNorWriteReqs            0                       # Number of requests that are neither read nor write
system.mem_ctrls2.perBankRdBursts::0             4292                       # Per bank write bursts
system.mem_ctrls2.perBankRdBursts::1             4781                       # Per bank write bursts
system.mem_ctrls2.perBankRdBursts::2             4434                       # Per bank write bursts
system.mem_ctrls2.perBankRdBursts::3             4798                       # Per bank write bursts
system.mem_ctrls2.perBankRdBursts::4             4535                       # Per bank write bursts
system.mem_ctrls2.perBankRdBursts::5             4626                       # Per bank write bursts
system.mem_ctrls2.perBankRdBursts::6             4418                       # Per bank write bursts
system.mem_ctrls2.perBankRdBursts::7             4419                       # Per bank write bursts
system.mem_ctrls2.perBankRdBursts::8             4356                       # Per bank write bursts
system.mem_ctrls2.perBankRdBursts::9             4653                       # Per bank write bursts
system.mem_ctrls2.perBankRdBursts::10            4395                       # Per bank write bursts
system.mem_ctrls2.perBankRdBursts::11            4652                       # Per bank write bursts
system.mem_ctrls2.perBankRdBursts::12            4240                       # Per bank write bursts
system.mem_ctrls2.perBankRdBursts::13            4073                       # Per bank write bursts
system.mem_ctrls2.perBankRdBursts::14            4263                       # Per bank write bursts
system.mem_ctrls2.perBankRdBursts::15            4403                       # Per bank write bursts
system.mem_ctrls2.perBankWrBursts::0             2703                       # Per bank write bursts
system.mem_ctrls2.perBankWrBursts::1             2712                       # Per bank write bursts
system.mem_ctrls2.perBankWrBursts::2             2688                       # Per bank write bursts
system.mem_ctrls2.perBankWrBursts::3             2789                       # Per bank write bursts
system.mem_ctrls2.perBankWrBursts::4             2697                       # Per bank write bursts
system.mem_ctrls2.perBankWrBursts::5             2822                       # Per bank write bursts
system.mem_ctrls2.perBankWrBursts::6             2646                       # Per bank write bursts
system.mem_ctrls2.perBankWrBursts::7             2734                       # Per bank write bursts
system.mem_ctrls2.perBankWrBursts::8             2629                       # Per bank write bursts
system.mem_ctrls2.perBankWrBursts::9             2811                       # Per bank write bursts
system.mem_ctrls2.perBankWrBursts::10            2656                       # Per bank write bursts
system.mem_ctrls2.perBankWrBursts::11            2599                       # Per bank write bursts
system.mem_ctrls2.perBankWrBursts::12            2537                       # Per bank write bursts
system.mem_ctrls2.perBankWrBursts::13            2548                       # Per bank write bursts
system.mem_ctrls2.perBankWrBursts::14            2715                       # Per bank write bursts
system.mem_ctrls2.perBankWrBursts::15            2654                       # Per bank write bursts
system.mem_ctrls2.numRdRetry                      290                       # Number of times read queue was full causing retry
system.mem_ctrls2.numWrRetry                     2160                       # Number of times write queue was full causing retry
system.mem_ctrls2.totGap                  38817688500                       # Total gap between requests
system.mem_ctrls2.readPktSize::0                    0                       # Read request sizes (log2)
system.mem_ctrls2.readPktSize::1                    0                       # Read request sizes (log2)
system.mem_ctrls2.readPktSize::2                    0                       # Read request sizes (log2)
system.mem_ctrls2.readPktSize::3                    0                       # Read request sizes (log2)
system.mem_ctrls2.readPktSize::4                    0                       # Read request sizes (log2)
system.mem_ctrls2.readPktSize::5                    0                       # Read request sizes (log2)
system.mem_ctrls2.readPktSize::6                71354                       # Read request sizes (log2)
system.mem_ctrls2.writePktSize::0                   0                       # Write request sizes (log2)
system.mem_ctrls2.writePktSize::1                   0                       # Write request sizes (log2)
system.mem_ctrls2.writePktSize::2                   0                       # Write request sizes (log2)
system.mem_ctrls2.writePktSize::3                   0                       # Write request sizes (log2)
system.mem_ctrls2.writePktSize::4                   0                       # Write request sizes (log2)
system.mem_ctrls2.writePktSize::5                   0                       # Write request sizes (log2)
system.mem_ctrls2.writePktSize::6               42940                       # Write request sizes (log2)
system.mem_ctrls2.rdQLenPdf::0                  44838                       # What read queue length does an incoming req see
system.mem_ctrls2.rdQLenPdf::1                   3536                       # What read queue length does an incoming req see
system.mem_ctrls2.rdQLenPdf::2                   3206                       # What read queue length does an incoming req see
system.mem_ctrls2.rdQLenPdf::3                   2779                       # What read queue length does an incoming req see
system.mem_ctrls2.rdQLenPdf::4                   2417                       # What read queue length does an incoming req see
system.mem_ctrls2.rdQLenPdf::5                   1891                       # What read queue length does an incoming req see
system.mem_ctrls2.rdQLenPdf::6                   1691                       # What read queue length does an incoming req see
system.mem_ctrls2.rdQLenPdf::7                   1439                       # What read queue length does an incoming req see
system.mem_ctrls2.rdQLenPdf::8                   1197                       # What read queue length does an incoming req see
system.mem_ctrls2.rdQLenPdf::9                   1056                       # What read queue length does an incoming req see
system.mem_ctrls2.rdQLenPdf::10                   900                       # What read queue length does an incoming req see
system.mem_ctrls2.rdQLenPdf::11                   796                       # What read queue length does an incoming req see
system.mem_ctrls2.rdQLenPdf::12                   691                       # What read queue length does an incoming req see
system.mem_ctrls2.rdQLenPdf::13                   582                       # What read queue length does an incoming req see
system.mem_ctrls2.rdQLenPdf::14                   506                       # What read queue length does an incoming req see
system.mem_ctrls2.rdQLenPdf::15                   440                       # What read queue length does an incoming req see
system.mem_ctrls2.rdQLenPdf::16                   392                       # What read queue length does an incoming req see
system.mem_ctrls2.rdQLenPdf::17                   364                       # What read queue length does an incoming req see
system.mem_ctrls2.rdQLenPdf::18                   283                       # What read queue length does an incoming req see
system.mem_ctrls2.rdQLenPdf::19                   273                       # What read queue length does an incoming req see
system.mem_ctrls2.rdQLenPdf::20                   225                       # What read queue length does an incoming req see
system.mem_ctrls2.rdQLenPdf::21                   205                       # What read queue length does an incoming req see
system.mem_ctrls2.rdQLenPdf::22                   187                       # What read queue length does an incoming req see
system.mem_ctrls2.rdQLenPdf::23                   172                       # What read queue length does an incoming req see
system.mem_ctrls2.rdQLenPdf::24                   161                       # What read queue length does an incoming req see
system.mem_ctrls2.rdQLenPdf::25                   162                       # What read queue length does an incoming req see
system.mem_ctrls2.rdQLenPdf::26                   143                       # What read queue length does an incoming req see
system.mem_ctrls2.rdQLenPdf::27                   138                       # What read queue length does an incoming req see
system.mem_ctrls2.rdQLenPdf::28                   110                       # What read queue length does an incoming req see
system.mem_ctrls2.rdQLenPdf::29                    86                       # What read queue length does an incoming req see
system.mem_ctrls2.rdQLenPdf::30                    89                       # What read queue length does an incoming req see
system.mem_ctrls2.rdQLenPdf::31                   383                       # What read queue length does an incoming req see
system.mem_ctrls2.wrQLenPdf::0                   7430                       # What write queue length does an incoming req see
system.mem_ctrls2.wrQLenPdf::1                   7634                       # What write queue length does an incoming req see
system.mem_ctrls2.wrQLenPdf::2                   7781                       # What write queue length does an incoming req see
system.mem_ctrls2.wrQLenPdf::3                   7900                       # What write queue length does an incoming req see
system.mem_ctrls2.wrQLenPdf::4                   8021                       # What write queue length does an incoming req see
system.mem_ctrls2.wrQLenPdf::5                    739                       # What write queue length does an incoming req see
system.mem_ctrls2.wrQLenPdf::6                    680                       # What write queue length does an incoming req see
system.mem_ctrls2.wrQLenPdf::7                   2755                       # What write queue length does an incoming req see
system.mem_ctrls2.bytesPerActivate::samples        28555                       # Bytes accessed per row activation
system.mem_ctrls2.bytesPerActivate::mean   256.116547                       # Bytes accessed per row activation
system.mem_ctrls2.bytesPerActivate::gmean   176.373067                       # Bytes accessed per row activation
system.mem_ctrls2.bytesPerActivate::stdev   240.851190                       # Bytes accessed per row activation
system.mem_ctrls2.bytesPerActivate::0-127         9294     32.55%     32.55% # Bytes accessed per row activation
system.mem_ctrls2.bytesPerActivate::128-255         6519     22.83%     55.38% # Bytes accessed per row activation
system.mem_ctrls2.bytesPerActivate::256-383         8153     28.55%     83.93% # Bytes accessed per row activation
system.mem_ctrls2.bytesPerActivate::384-511         1110      3.89%     87.82% # Bytes accessed per row activation
system.mem_ctrls2.bytesPerActivate::512-639          817      2.86%     90.68% # Bytes accessed per row activation
system.mem_ctrls2.bytesPerActivate::640-767          631      2.21%     92.89% # Bytes accessed per row activation
system.mem_ctrls2.bytesPerActivate::768-895          429      1.50%     94.39% # Bytes accessed per row activation
system.mem_ctrls2.bytesPerActivate::896-1023          427      1.50%     95.89% # Bytes accessed per row activation
system.mem_ctrls2.bytesPerActivate::1024-1151         1175      4.11%    100.00% # Bytes accessed per row activation
system.mem_ctrls2.bytesPerActivate::total        28555                       # Bytes accessed per row activation
system.mem_ctrls2.rdPerTurnAround::samples         7654                       # Reads before turning the bus around for writes
system.mem_ctrls2.rdPerTurnAround::mean      9.319833                       # Reads before turning the bus around for writes
system.mem_ctrls2.rdPerTurnAround::stdev    37.487889                       # Reads before turning the bus around for writes
system.mem_ctrls2.rdPerTurnAround::0-127         7649     99.93%     99.93% # Reads before turning the bus around for writes
system.mem_ctrls2.rdPerTurnAround::128-255            3      0.04%     99.97% # Reads before turning the bus around for writes
system.mem_ctrls2.rdPerTurnAround::1152-1279            1      0.01%     99.99% # Reads before turning the bus around for writes
system.mem_ctrls2.rdPerTurnAround::2816-2943            1      0.01%    100.00% # Reads before turning the bus around for writes
system.mem_ctrls2.rdPerTurnAround::total         7654                       # Reads before turning the bus around for writes
system.mem_ctrls2.wrPerTurnAround::samples         7654                       # Writes before turning the bus around for reads
system.mem_ctrls2.wrPerTurnAround::mean      5.610138                       # Writes before turning the bus around for reads
system.mem_ctrls2.wrPerTurnAround::gmean     5.379448                       # Writes before turning the bus around for reads
system.mem_ctrls2.wrPerTurnAround::stdev     2.223635                       # Writes before turning the bus around for reads
system.mem_ctrls2.wrPerTurnAround::4-7           7150     93.42%     93.42% # Writes before turning the bus around for reads
system.mem_ctrls2.wrPerTurnAround::8-11           157      2.05%     95.47% # Writes before turning the bus around for reads
system.mem_ctrls2.wrPerTurnAround::12-15          100      1.31%     96.77% # Writes before turning the bus around for reads
system.mem_ctrls2.wrPerTurnAround::16-19          247      3.23%    100.00% # Writes before turning the bus around for reads
system.mem_ctrls2.wrPerTurnAround::total         7654                       # Writes before turning the bus around for reads
system.mem_ctrls2.totQLat                  3110989200                       # Total ticks spent queuing
system.mem_ctrls2.totMemAccLat             4448576700                       # Total ticks spent from burst creation until serviced by the DRAM
system.mem_ctrls2.totBusLat                 356690000                       # Total ticks spent in databus transfers
system.mem_ctrls2.avgQLat                    43609.15                       # Average queueing delay per DRAM burst
system.mem_ctrls2.avgBusLat                   5000.00                       # Average bus latency per DRAM burst
system.mem_ctrls2.avgMemAccLat               62359.15                       # Average memory access latency per DRAM burst
system.mem_ctrls2.avgRdBW                      117.62                       # Average DRAM read bandwidth in MiByte/s
system.mem_ctrls2.avgWrBW                       70.80                       # Average achieved write bandwidth in MiByte/s
system.mem_ctrls2.avgRdBWSys                   117.64                       # Average system read bandwidth in MiByte/s
system.mem_ctrls2.avgWrBWSys                    70.80                       # Average system write bandwidth in MiByte/s
system.mem_ctrls2.peakBW                     12800.00                       # Theoretical peak bandwidth in MiByte/s
system.mem_ctrls2.busUtil                        1.47                       # Data bus utilization in percentage
system.mem_ctrls2.busUtilRead                    0.92                       # Data bus utilization in percentage for reads
system.mem_ctrls2.busUtilWrite                   0.55                       # Data bus utilization in percentage for writes
system.mem_ctrls2.avgRdQLen                      1.10                       # Average read queue length when enqueuing
system.mem_ctrls2.avgWrQLen                      2.88                       # Average write queue length when enqueuing
system.mem_ctrls2.readRowHits                   55792                       # Number of row buffer hits during reads
system.mem_ctrls2.writeRowHits                  29928                       # Number of row buffer hits during writes
system.mem_ctrls2.readRowHitRate                78.21                       # Row buffer hit rate for reads
system.mem_ctrls2.writeRowHitRate               69.70                       # Row buffer hit rate for writes
system.mem_ctrls2.avgGap                    339630.15                       # Average gap between requests
system.mem_ctrls2.pageHitRate                   75.01                       # Row buffer hit rate, read and write combined
system.mem_ctrls2.memoryStateTime::IDLE   10522935000                       # Time in different power states
system.mem_ctrls2.memoryStateTime::REF     1296100000                       # Time in different power states
system.mem_ctrls2.memoryStateTime::PRE_PDN            0                       # Time in different power states
system.mem_ctrls2.memoryStateTime::ACT    26995695000                       # Time in different power states
system.mem_ctrls2.memoryStateTime::ACT_PDN            0                       # Time in different power states
system.mem_ctrls2.actEnergy::0              112689360                       # Energy for activate commands per rank (pJ)
system.mem_ctrls2.actEnergy::1              103148640                       # Energy for activate commands per rank (pJ)
system.mem_ctrls2.preEnergy::0               61487250                       # Energy for precharge commands per rank (pJ)
system.mem_ctrls2.preEnergy::1               56281500                       # Energy for precharge commands per rank (pJ)
system.mem_ctrls2.readEnergy::0             283132200                       # Energy for read commands per rank (pJ)
system.mem_ctrls2.readEnergy::1             273210600                       # Energy for read commands per rank (pJ)
system.mem_ctrls2.writeEnergy::0            141186240                       # Energy for write commands per rank (pJ)
system.mem_ctrls2.writeEnergy::1            137032560                       # Energy for write commands per rank (pJ)
system.mem_ctrls2.refreshEnergy::0         2535171600                       # Energy for refresh commands per rank (pJ)
system.mem_ctrls2.refreshEnergy::1         2535171600                       # Energy for refresh commands per rank (pJ)
system.mem_ctrls2.actBackEnergy::0        14089279950                       # Energy for active background per rank (pJ)
system.mem_ctrls2.actBackEnergy::1        13434978375                       # Energy for active background per rank (pJ)
system.mem_ctrls2.preBackEnergy::0        10929812250                       # Energy for precharge background per rank (pJ)
system.mem_ctrls2.preBackEnergy::1        11503761000                       # Energy for precharge background per rank (pJ)
system.mem_ctrls2.totalEnergy::0          28152758850                       # Total energy per rank (pJ)
system.mem_ctrls2.totalEnergy::1          28043584275                       # Total energy per rank (pJ)
system.mem_ctrls2.averagePower::0          725.311469                       # Core power per rank (mW)
system.mem_ctrls2.averagePower::1          722.498758                       # Core power per rank (mW)
system.mem_ctrls3.bytes_read::ruby.dir_cntrl3      4548544                       # Number of bytes read from this memory
system.mem_ctrls3.bytes_read::total           4548544                       # Number of bytes read from this memory
system.mem_ctrls3.bytes_written::ruby.dir_cntrl3      2743616                       # Number of bytes written to this memory
system.mem_ctrls3.bytes_written::total        2743616                       # Number of bytes written to this memory
system.mem_ctrls3.num_reads::ruby.dir_cntrl3        71071                       # Number of read requests responded to by this memory
system.mem_ctrls3.num_reads::total              71071                       # Number of read requests responded to by this memory
system.mem_ctrls3.num_writes::ruby.dir_cntrl3        42869                       # Number of write requests responded to by this memory
system.mem_ctrls3.num_writes::total             42869                       # Number of write requests responded to by this memory
system.mem_ctrls3.bw_read::ruby.dir_cntrl3    117175508                       # Total read bandwidth from this memory (bytes/s)
system.mem_ctrls3.bw_read::total            117175508                       # Total read bandwidth from this memory (bytes/s)
system.mem_ctrls3.bw_write::ruby.dir_cntrl3     70678573                       # Write bandwidth from this memory (bytes/s)
system.mem_ctrls3.bw_write::total            70678573                       # Write bandwidth from this memory (bytes/s)
system.mem_ctrls3.bw_total::ruby.dir_cntrl3    187854081                       # Total bandwidth to/from this memory (bytes/s)
system.mem_ctrls3.bw_total::total           187854081                       # Total bandwidth to/from this memory (bytes/s)
system.mem_ctrls3.readReqs                      71072                       # Number of read requests accepted
system.mem_ctrls3.writeReqs                     42869                       # Number of write requests accepted
system.mem_ctrls3.readBursts                    71072                       # Number of DRAM read bursts, including those serviced by the write queue
system.mem_ctrls3.writeBursts                   42869                       # Number of DRAM write bursts, including those merged in the write queue
system.mem_ctrls3.bytesReadDRAM               4548160                       # Total number of bytes read from DRAM
system.mem_ctrls3.bytesReadWrQ                    448                       # Total number of bytes read from write queue
system.mem_ctrls3.bytesWritten                2743488                       # Total number of bytes written to DRAM
system.mem_ctrls3.bytesReadSys                4548608                       # Total read bytes from the system interface side
system.mem_ctrls3.bytesWrittenSys             2743616                       # Total written bytes from the system interface side
system.mem_ctrls3.servicedByWrQ                     7                       # Number of DRAM read bursts serviced by the write queue
system.mem_ctrls3.mergedWrBursts                    0                       # Number of DRAM write bursts merged with an existing one
system.mem_ctrls3.neitherReadNorWriteReqs            0                       # Number of requests that are neither read nor write
system.mem_ctrls3.perBankRdBursts::0             4281                       # Per bank write bursts
system.mem_ctrls3.perBankRdBursts::1             4737                       # Per bank write bursts
system.mem_ctrls3.perBankRdBursts::2             4407                       # Per bank write bursts
system.mem_ctrls3.perBankRdBursts::3             4759                       # Per bank write bursts
system.mem_ctrls3.perBankRdBursts::4             4487                       # Per bank write bursts
system.mem_ctrls3.perBankRdBursts::5             4595                       # Per bank write bursts
system.mem_ctrls3.perBankRdBursts::6             4405                       # Per bank write bursts
system.mem_ctrls3.perBankRdBursts::7             4417                       # Per bank write bursts
system.mem_ctrls3.perBankRdBursts::8             4365                       # Per bank write bursts
system.mem_ctrls3.perBankRdBursts::9             4633                       # Per bank write bursts
system.mem_ctrls3.perBankRdBursts::10            4406                       # Per bank write bursts
system.mem_ctrls3.perBankRdBursts::11            4620                       # Per bank write bursts
system.mem_ctrls3.perBankRdBursts::12            4224                       # Per bank write bursts
system.mem_ctrls3.perBankRdBursts::13            4052                       # Per bank write bursts
system.mem_ctrls3.perBankRdBursts::14            4276                       # Per bank write bursts
system.mem_ctrls3.perBankRdBursts::15            4401                       # Per bank write bursts
system.mem_ctrls3.perBankWrBursts::0             2708                       # Per bank write bursts
system.mem_ctrls3.perBankWrBursts::1             2700                       # Per bank write bursts
system.mem_ctrls3.perBankWrBursts::2             2689                       # Per bank write bursts
system.mem_ctrls3.perBankWrBursts::3             2773                       # Per bank write bursts
system.mem_ctrls3.perBankWrBursts::4             2690                       # Per bank write bursts
system.mem_ctrls3.perBankWrBursts::5             2817                       # Per bank write bursts
system.mem_ctrls3.perBankWrBursts::6             2639                       # Per bank write bursts
system.mem_ctrls3.perBankWrBursts::7             2726                       # Per bank write bursts
system.mem_ctrls3.perBankWrBursts::8             2625                       # Per bank write bursts
system.mem_ctrls3.perBankWrBursts::9             2804                       # Per bank write bursts
system.mem_ctrls3.perBankWrBursts::10            2651                       # Per bank write bursts
system.mem_ctrls3.perBankWrBursts::11            2605                       # Per bank write bursts
system.mem_ctrls3.perBankWrBursts::12            2530                       # Per bank write bursts
system.mem_ctrls3.perBankWrBursts::13            2555                       # Per bank write bursts
system.mem_ctrls3.perBankWrBursts::14            2707                       # Per bank write bursts
system.mem_ctrls3.perBankWrBursts::15            2648                       # Per bank write bursts
system.mem_ctrls3.numRdRetry                      356                       # Number of times read queue was full causing retry
system.mem_ctrls3.numWrRetry                     2382                       # Number of times write queue was full causing retry
system.mem_ctrls3.totGap                  38817472000                       # Total gap between requests
system.mem_ctrls3.readPktSize::0                    0                       # Read request sizes (log2)
system.mem_ctrls3.readPktSize::1                    0                       # Read request sizes (log2)
system.mem_ctrls3.readPktSize::2                    0                       # Read request sizes (log2)
system.mem_ctrls3.readPktSize::3                    0                       # Read request sizes (log2)
system.mem_ctrls3.readPktSize::4                    0                       # Read request sizes (log2)
system.mem_ctrls3.readPktSize::5                    0                       # Read request sizes (log2)
system.mem_ctrls3.readPktSize::6                71072                       # Read request sizes (log2)
system.mem_ctrls3.writePktSize::0                   0                       # Write request sizes (log2)
system.mem_ctrls3.writePktSize::1                   0                       # Write request sizes (log2)
system.mem_ctrls3.writePktSize::2                   0                       # Write request sizes (log2)
system.mem_ctrls3.writePktSize::3                   0                       # Write request sizes (log2)
system.mem_ctrls3.writePktSize::4                   0                       # Write request sizes (log2)
system.mem_ctrls3.writePktSize::5                   0                       # Write request sizes (log2)
system.mem_ctrls3.writePktSize::6               42869                       # Write request sizes (log2)
system.mem_ctrls3.rdQLenPdf::0                  44322                       # What read queue length does an incoming req see
system.mem_ctrls3.rdQLenPdf::1                   3141                       # What read queue length does an incoming req see
system.mem_ctrls3.rdQLenPdf::2                   2682                       # What read queue length does an incoming req see
system.mem_ctrls3.rdQLenPdf::3                   2643                       # What read queue length does an incoming req see
system.mem_ctrls3.rdQLenPdf::4                   2360                       # What read queue length does an incoming req see
system.mem_ctrls3.rdQLenPdf::5                   2031                       # What read queue length does an incoming req see
system.mem_ctrls3.rdQLenPdf::6                   1769                       # What read queue length does an incoming req see
system.mem_ctrls3.rdQLenPdf::7                   1574                       # What read queue length does an incoming req see
system.mem_ctrls3.rdQLenPdf::8                   1394                       # What read queue length does an incoming req see
system.mem_ctrls3.rdQLenPdf::9                   1214                       # What read queue length does an incoming req see
system.mem_ctrls3.rdQLenPdf::10                  1054                       # What read queue length does an incoming req see
system.mem_ctrls3.rdQLenPdf::11                   933                       # What read queue length does an incoming req see
system.mem_ctrls3.rdQLenPdf::12                   770                       # What read queue length does an incoming req see
system.mem_ctrls3.rdQLenPdf::13                   637                       # What read queue length does an incoming req see
system.mem_ctrls3.rdQLenPdf::14                   532                       # What read queue length does an incoming req see
system.mem_ctrls3.rdQLenPdf::15                   464                       # What read queue length does an incoming req see
system.mem_ctrls3.rdQLenPdf::16                   409                       # What read queue length does an incoming req see
system.mem_ctrls3.rdQLenPdf::17                   329                       # What read queue length does an incoming req see
system.mem_ctrls3.rdQLenPdf::18                   301                       # What read queue length does an incoming req see
system.mem_ctrls3.rdQLenPdf::19                   271                       # What read queue length does an incoming req see
system.mem_ctrls3.rdQLenPdf::20                   243                       # What read queue length does an incoming req see
system.mem_ctrls3.rdQLenPdf::21                   229                       # What read queue length does an incoming req see
system.mem_ctrls3.rdQLenPdf::22                   202                       # What read queue length does an incoming req see
system.mem_ctrls3.rdQLenPdf::23                   182                       # What read queue length does an incoming req see
system.mem_ctrls3.rdQLenPdf::24                   171                       # What read queue length does an incoming req see
[...]
system.ruby.L2Cache_Controller.IM.L1_GETX::total            4                      
system.ruby.L2Cache_Controller.IM.Mem_Data |        4705      3.12%      3.12% |        4697      3.12%      6.24% |        4706      3.12%      9.37% |        4713      3.13%     12.50% |        4704      3.12%     15.62% |        4711      3.13%     18.75% |        4710      3.13%     21.88% |        4694      3.12%     24.99% |        4710      3.13%     28.12% |        4711      3.13%     31.25% |        4696      3.12%     34.37% |        4715      3.13%     37.50% |        4700      3.12%     40.62% |        4703      3.12%     43.74% |        4702      3.12%     46.86% |        4698      3.12%     49.98% |        4716      3.13%     53.11% |        4710      3.13%     56.24% |        4712      3.13%     59.37% |        4706      3.12%     62.50% |        4709      3.13%     65.62% |        4723      3.14%     68.76% |        4701      3.12%     71.88% |        4707      3.13%     75.01% |        4720      3.13%     78.14% |        4710      3.13%     81.27% |        4716      3.13%     84.40% |        4702      3.12%     87.52% |        4703      3.12%     90.64% |        4699      3.12%     93.76% |        4703      3.12%     96.89% |        4688      3.11%    100.00%
system.ruby.L2Cache_Controller.IM.Mem_Data::total       150600                      
system.ruby.L2Cache_Controller.SS_MB.Exclusive_Unblock |           3      6.82%      6.82% |           6     13.64%     20.45% |           3      6.82%     27.27% |           4      9.09%     36.36% |           0      0.00%     36.36% |           0      0.00%     36.36% |           0      0.00%     36.36% |           0      0.00%     36.36% |           0      0.00%     36.36% |           0      0.00%     36.36% |           0      0.00%     36.36% |           0      0.00%     36.36% |           3      6.82%     43.18% |           0      0.00%     43.18% |           4      9.09%     52.27% |           0      0.00%     52.27% |           1      2.27%     54.55% |           0      0.00%     54.55% |          11     25.00%     79.55% |           2      4.55%     84.09% |           0      0.00%     84.09% |           1      2.27%     86.36% |           0      0.00%     86.36% |           1      2.27%     88.64% |           1      2.27%     90.91% |           0      0.00%     90.91% |           1      2.27%     93.18% |           2      4.55%     97.73% |           1      2.27%    100.00% |           0      0.00%    100.00% |           0      0.00%    100.00% |           0      0.00%    100.00%
system.ruby.L2Cache_Controller.SS_MB.Exclusive_Unblock::total           44                      
system.ruby.L2Cache_Controller.MT_MB.L1_GETS |           4     57.14%     57.14% |           0      0.00%     57.14% |           0      0.00%     57.14% |           0      0.00%     57.14% |           0      0.00%     57.14% |           0      0.00%     57.14% |           0      0.00%     57.14% |           0      0.00%     57.14% |           0      0.00%     57.14% |           0      0.00%     57.14% |           0      0.00%     57.14% |           0      0.00%     57.14% |           0      0.00%     57.14% |           0      0.00%     57.14% |           0      0.00%     57.14% |           0      0.00%     57.14% |           3     42.86%    100.00% |           0      0.00%    100.00% |           0      0.00%    100.00% |           0      0.00%    100.00% |           0      0.00%    100.00% |           0      0.00%    100.00% |           0      0.00%    100.00% |           0      0.00%    100.00% |           0      0.00%    100.00% |           0      0.00%    100.00% |           0      0.00%    100.00% |           0      0.00%    100.00% |           0      0.00%    100.00% |           0      0.00%    100.00% |           0      0.00%    100.00% |           0      0.00%    100.00%
system.ruby.L2Cache_Controller.MT_MB.L1_GETS::total            7                      
system.ruby.L2Cache_Controller.MT_MB.L1_PUTX |           0      0.00%      0.00% |           0      0.00%      0.00% |           0      0.00%      0.00% |           0      0.00%      0.00% |           0      0.00%      0.00% |           0      0.00%      0.00% |           0      0.00%      0.00% |           0      0.00%      0.00% |           0      0.00%      0.00% |           0      0.00%      0.00% |           0      0.00%      0.00% |           0      0.00%      0.00% |           0      0.00%      0.00% |           0      0.00%      0.00% |           0      0.00%      0.00% |           0      0.00%      0.00% |           1    100.00%    100.00% |           0      0.00%    100.00% |           0      0.00%    100.00% |           0      0.00%    100.00% |           0      0.00%    100.00% |           0      0.00%    100.00% |           0      0.00%    100.00% |           0      0.00%    100.00% |           0      0.00%    100.00% |           0      0.00%    100.00% |           0      0.00%    100.00% |           0      0.00%    100.00% |           0      0.00%    100.00% |           0      0.00%    100.00% |           0      0.00%    100.00% |           0      0.00%    100.00%
system.ruby.L2Cache_Controller.MT_MB.L1_PUTX::total            1                      
system.ruby.L2Cache_Controller.MT_MB.Exclusive_Unblock |       60412     12.23%     12.23% |       15538      3.15%     15.38% |       12747      2.58%     17.96% |       14800      3.00%     20.96% |       13333      2.70%     23.66% |       12717      2.57%     26.23% |       12240      2.48%     28.71% |       12902      2.61%     31.32% |       13097      2.65%     33.97% |       12757      2.58%     36.56% |       15511      3.14%     39.70% |       15760      3.19%     42.89% |       14128      2.86%     45.75% |       13215      2.68%     48.42% |       11998      2.43%     50.85% |       12462      2.52%     53.38% |       13961      2.83%     56.20% |       12805      2.59%     58.80% |       13227      2.68%     61.47% |       14224      2.88%     64.35% |       14901      3.02%     67.37% |       15880      3.22%     70.59% |       13721      2.78%     73.36% |       13754      2.78%     76.15% |       13836      2.80%     78.95% |       13398      2.71%     81.66% |       13250      2.68%     84.35% |       12958      2.62%     86.97% |       15562      3.15%     90.12% |       13986      2.83%     92.95% |       16358      3.31%     96.26% |       18447      3.74%    100.00%
system.ruby.L2Cache_Controller.MT_MB.Exclusive_Unblock::total       493885                      
system.ruby.L2Cache_Controller.MT_IIB.L1_PUTX |           1     50.00%     50.00% |           0      0.00%     50.00% |           0      0.00%     50.00% |           0      0.00%     50.00% |           0      0.00%     50.00% |           0      0.00%     50.00% |           0      0.00%     50.00% |           0      0.00%     50.00% |           0      0.00%     50.00% |           0      0.00%     50.00% |           0      0.00%     50.00% |           0      0.00%     50.00% |           0      0.00%     50.00% |           0      0.00%     50.00% |           0      0.00%     50.00% |           0      0.00%     50.00% |           1     50.00%    100.00% |           0      0.00%    100.00% |           0      0.00%    100.00% |           0      0.00%    100.00% |           0      0.00%    100.00% |           0      0.00%    100.00% |           0      0.00%    100.00% |           0      0.00%    100.00% |           0      0.00%    100.00% |           0      0.00%    100.00% |           0      0.00%    100.00% |           0      0.00%    100.00% |           0      0.00%    100.00% |           0      0.00%    100.00% |           0      0.00%    100.00% |           0      0.00%    100.00%
system.ruby.L2Cache_Controller.MT_IIB.L1_PUTX::total            2                      
system.ruby.L2Cache_Controller.MT_IIB.WB_Data |           0      0.00%      0.00% |           1     20.00%     20.00% |           1     20.00%     40.00% |           1     20.00%     60.00% |           0      0.00%     60.00% |           0      0.00%     60.00% |           1     20.00%     80.00% |           0      0.00%     80.00% |           0      0.00%     80.00% |           1     20.00%    100.00% |           0      0.00%    100.00% |           0      0.00%    100.00% |           0      0.00%    100.00% |           0      0.00%    100.00% |           0      0.00%    100.00% |           0      0.00%    100.00% |           0      0.00%    100.00% |           0      0.00%    100.00% |           0      0.00%    100.00% |           0      0.00%    100.00% |           0      0.00%    100.00% |           0      0.00%    100.00% |           0      0.00%    100.00% |           0      0.00%    100.00% |           0      0.00%    100.00% |           0      0.00%    100.00% |           0      0.00%    100.00% |           0      0.00%    100.00% |           0      0.00%    100.00% |           0      0.00%    100.00% |           0      0.00%    100.00% |           0      0.00%    100.00%
system.ruby.L2Cache_Controller.MT_IIB.WB_Data::total            5                      
system.ruby.L2Cache_Controller.MT_IIB.WB_Data_clean |        2963     50.95%     50.95% |           0      0.00%     50.95% |           0      0.00%     50.95% |           0      0.00%     50.95% |           0      0.00%     50.95% |           0      0.00%     50.95% |           0      0.00%     50.95% |           0      0.00%     50.95% |           0      0.00%     50.95% |           0      0.00%     50.95% |           0      0.00%     50.95% |           0      0.00%     50.95% |           0      0.00%     50.95% |           0      0.00%     50.95% |           0      0.00%     50.95% |           0      0.00%     50.95% |        2852     49.05%    100.00% |           0      0.00%    100.00% |           0      0.00%    100.00% |           0      0.00%    100.00% |           0      0.00%    100.00% |           0      0.00%    100.00% |           0      0.00%    100.00% |           0      0.00%    100.00% |           0      0.00%    100.00% |           0      0.00%    100.00% |           0      0.00%    100.00% |           0      0.00%    100.00% |           0      0.00%    100.00% |           0      0.00%    100.00% |           0      0.00%    100.00% |           0      0.00%    100.00%
system.ruby.L2Cache_Controller.MT_IIB.WB_Data_clean::total         5815                      
system.ruby.L2Cache_Controller.MT_IIB.Unblock |          80     29.30%     29.30% |           0      0.00%     29.30% |           0      0.00%     29.30% |           0      0.00%     29.30% |           0      0.00%     29.30% |           0      0.00%     29.30% |           0      0.00%     29.30% |           0      0.00%     29.30% |           0      0.00%     29.30% |           0      0.00%     29.30% |           0      0.00%     29.30% |           0      0.00%     29.30% |           0      0.00%     29.30% |           0      0.00%     29.30% |           0      0.00%     29.30% |           0      0.00%     29.30% |         193     70.70%    100.00% |           0      0.00%    100.00% |           0      0.00%    100.00% |           0      0.00%    100.00% |           0      0.00%    100.00% |           0      0.00%    100.00% |           0      0.00%    100.00% |           0      0.00%    100.00% |           0      0.00%    100.00% |           0      0.00%    100.00% |           0      0.00%    100.00% |           0      0.00%    100.00% |           0      0.00%    100.00% |           0      0.00%    100.00% |           0      0.00%    100.00% |           0      0.00%    100.00%
system.ruby.L2Cache_Controller.MT_IIB.Unblock::total          273                      
system.ruby.L2Cache_Controller.MT_IB.WB_Data_clean |          80     29.30%     29.30% |           0      0.00%     29.30% |           0      0.00%     29.30% |           0      0.00%     29.30% |           0      0.00%     29.30% |           0      0.00%     29.30% |           0      0.00%     29.30% |           0      0.00%     29.30% |           0      0.00%     29.30% |           0      0.00%     29.30% |           0      0.00%     29.30% |           0      0.00%     29.30% |           0      0.00%     29.30% |           0      0.00%     29.30% |           0      0.00%     29.30% |           0      0.00%     29.30% |         193     70.70%    100.00% |           0      0.00%    100.00% |           0      0.00%    100.00% |           0      0.00%    100.00% |           0      0.00%    100.00% |           0      0.00%    100.00% |           0      0.00%    100.00% |           0      0.00%    100.00% |           0      0.00%    100.00% |           0      0.00%    100.00% |           0      0.00%    100.00% |           0      0.00%    100.00% |           0      0.00%    100.00% |           0      0.00%    100.00% |           0      0.00%    100.00% |           0      0.00%    100.00%
system.ruby.L2Cache_Controller.MT_IB.WB_Data_clean::total          273                      
system.ruby.L2Cache_Controller.MT_SB.Unblock |        2963     50.91%     50.91% |           1      0.02%     50.93% |           1      0.02%     50.95% |           1      0.02%     50.96% |           0      0.00%     50.96% |           0      0.00%     50.96% |           1      0.02%     50.98% |           0      0.00%     50.98% |           0      0.00%     50.98% |           1      0.02%     51.00% |           0      0.00%     51.00% |           0      0.00%     51.00% |           0      0.00%     51.00% |           0      0.00%     51.00% |           0      0.00%     51.00% |           0      0.00%     51.00% |        2852     49.00%    100.00% |           0      0.00%    100.00% |           0      0.00%    100.00% |           0      0.00%    100.00% |           0      0.00%    100.00% |           0      0.00%    100.00% |           0      0.00%    100.00% |           0      0.00%    100.00% |           0      0.00%    100.00% |           0      0.00%    100.00% |           0      0.00%    100.00% |           0      0.00%    100.00% |           0      0.00%    100.00% |           0      0.00%    100.00% |           0      0.00%    100.00% |           0      0.00%    100.00%
system.ruby.L2Cache_Controller.MT_SB.Unblock::total         5820                      
system.ruby.SimicsNetworkPortInterface_Controller.MessageSend |       16529     10.31%     10.31% |       80189     50.00%     60.31% |        7979      4.98%     65.28% |        7385      4.60%     69.89% |        8046      5.02%     74.90% |        8022      5.00%     79.90% |        7978      4.97%     84.88% |        7805      4.87%     89.75% |        7927      4.94%     94.69% |        8518      5.31%    100.00% |           0      0.00%    100.00% |           0      0.00%    100.00% |           0      0.00%    100.00% |           0      0.00%    100.00% |           0      0.00%    100.00% |           0      0.00%    100.00% |           0      0.00%    100.00% |           0      0.00%    100.00% |           0      0.00%    100.00% |           0      0.00%    100.00% |           0      0.00%    100.00% |           0      0.00%    100.00% |           0      0.00%    100.00% |           0      0.00%    100.00% |           0      0.00%    100.00% |           0      0.00%    100.00% |           0      0.00%    100.00% |           0      0.00%    100.00% |           0      0.00%    100.00% |           0      0.00%    100.00% |           0      0.00%    100.00% |           0      0.00%    100.00%
system.ruby.SimicsNetworkPortInterface_Controller.MessageSend::total       160378                      
system.ruby.SimicsNetworkPortInterface_Controller.MessageRecv |       16529     10.31%     10.31% |       80189     50.00%     60.31% |        7979      4.98%     65.28% |        7385      4.60%     69.89% |        8046      5.02%     74.90% |        8022      5.00%     79.90% |        7978      4.97%     84.88% |        7805      4.87%     89.75% |        7927      4.94%     94.69% |        8518      5.31%    100.00% |           0      0.00%    100.00% |           0      0.00%    100.00% |           0      0.00%    100.00% |           0      0.00%    100.00% |           0      0.00%    100.00% |           0      0.00%    100.00% |           0      0.00%    100.00% |           0      0.00%    100.00% |           0      0.00%    100.00% |           0      0.00%    100.00% |           0      0.00%    100.00% |           0      0.00%    100.00% |           0      0.00%    100.00% |           0      0.00%    100.00% |           0      0.00%    100.00% |           0      0.00%    100.00% |           0      0.00%    100.00% |           0      0.00%    100.00% |           0      0.00%    100.00% |           0      0.00%    100.00% |           0      0.00%    100.00% |           0      0.00%    100.00%
system.ruby.SimicsNetworkPortInterface_Controller.MessageRecv::total       160378                      
system.ruby.SimicsNetworkPortInterface_Controller.A.MessageSend |       16529     10.31%     10.31% |       80189     50.00%     60.31% |        7979      4.98%     65.28% |        7385      4.60%     69.89% |        8046      5.02%     74.90% |        8022      5.00%     79.90% |        7978      4.97%     84.88% |        7805      4.87%     89.75% |        7927      4.94%     94.69% |        8518      5.31%    100.00% |           0      0.00%    100.00% |           0      0.00%    100.00% |           0      0.00%    100.00% |           0      0.00%    100.00% |           0      0.00%    100.00% |           0      0.00%    100.00% |           0      0.00%    100.00% |           0      0.00%    100.00% |           0      0.00%    100.00% |           0      0.00%    100.00% |           0      0.00%    100.00% |           0      0.00%    100.00% |           0      0.00%    100.00% |           0      0.00%    100.00% |           0      0.00%    100.00% |           0      0.00%    100.00% |           0      0.00%    100.00% |           0      0.00%    100.00% |           0      0.00%    100.00% |           0      0.00%    100.00% |           0      0.00%    100.00% |           0      0.00%    100.00%
system.ruby.SimicsNetworkPortInterface_Controller.A.MessageSend::total       160378                      
system.ruby.SimicsNetworkPortInterface_Controller.A.MessageRecv |       16529     10.31%     10.31% |       80189     50.00%     60.31% |        7979      4.98%     65.28% |        7385      4.60%     69.89% |        8046      5.02%     74.90% |        8022      5.00%     79.90% |        7978      4.97%     84.88% |        7805      4.87%     89.75% |        7927      4.94%     94.69% |        8518      5.31%    100.00% |           0      0.00%    100.00% |           0      0.00%    100.00% |           0      0.00%    100.00% |           0      0.00%    100.00% |           0      0.00%    100.00% |           0      0.00%    100.00% |           0      0.00%    100.00% |           0      0.00%    100.00% |           0      0.00%    100.00% |           0      0.00%    100.00% |           0      0.00%    100.00% |           0      0.00%    100.00% |           0      0.00%    100.00% |           0      0.00%    100.00% |           0      0.00%    100.00% |           0      0.00%    100.00% |           0      0.00%    100.00% |           0      0.00%    100.00% |           0      0.00%    100.00% |           0      0.00%    100.00% |           0      0.00%    100.00% |           0      0.00%    100.00%
system.ruby.SimicsNetworkPortInterface_Controller.A.MessageRecv::total       160378                      
system.switch_cpus.kern.inst.arm                    0                       # number of arm instructions executed
system.switch_cpus.kern.inst.quiesce                0                       # number of quiesce instructions executed

---------- End Simulation Statistics   ----------
