
---------- Begin Simulation Statistics ----------
sim_seconds                                  0.059746                       # Number of seconds simulated
sim_ticks                                 59746389000                       # Number of ticks simulated
final_tick                               5235914467500                       # Number of ticks from beginning of simulation (restored from checkpoints and never reset)
sim_freq                                 1000000000000                       # Frequency of simulated ticks
host_inst_rate                                  95178                       # Simulator instruction rate (inst/s)
host_op_rate                                   169335                       # Simulator op (including micro ops) rate (op/s)
host_tick_rate                              143130115                       # Simulator tick rate (ticks/s)
host_mem_usage                                4818660                       # Number of bytes of host memory used
host_seconds                                   417.43                       # Real time elapsed on the host
sim_insts                                    39729843                       # Number of instructions simulated
sim_ops                                      70684837                       # Number of ops (including micro ops) simulated
system.voltage_domain.voltage                       1                       # Voltage in Volts
system.clk_domain.clock                           500                       # Clock period in ticks
system.mem_ctrls0.bytes_read::ruby.dir_cntrl0     14034176                       # Number of bytes read from this memory
system.mem_ctrls0.bytes_read::total          14034176                       # Number of bytes read from this memory
system.mem_ctrls0.bytes_written::ruby.dir_cntrl0      4007616                       # Number of bytes written to this memory
system.mem_ctrls0.bytes_written::total        4007616                       # Number of bytes written to this memory
system.mem_ctrls0.num_reads::ruby.dir_cntrl0       219284                       # Number of read requests responded to by this memory
system.mem_ctrls0.num_reads::total             219284                       # Number of read requests responded to by this memory
system.mem_ctrls0.num_writes::ruby.dir_cntrl0        62619                       # Number of write requests responded to by this memory
system.mem_ctrls0.num_writes::total             62619                       # Number of write requests responded to by this memory
system.mem_ctrls0.bw_read::ruby.dir_cntrl0    234895803                       # Total read bandwidth from this memory (bytes/s)
system.mem_ctrls0.bw_read::total            234895803                       # Total read bandwidth from this memory (bytes/s)
system.mem_ctrls0.bw_write::ruby.dir_cntrl0     67077125                       # Write bandwidth from this memory (bytes/s)
system.mem_ctrls0.bw_write::total            67077125                       # Write bandwidth from this memory (bytes/s)
system.mem_ctrls0.bw_total::ruby.dir_cntrl0    301972928                       # Total bandwidth to/from this memory (bytes/s)
system.mem_ctrls0.bw_total::total           301972928                       # Total bandwidth to/from this memory (bytes/s)
system.mem_ctrls0.readReqs                     219284                       # Number of read requests accepted
system.mem_ctrls0.writeReqs                     62619                       # Number of write requests accepted
system.mem_ctrls0.readBursts                   219284                       # Number of DRAM read bursts, including those serviced by the write queue
system.mem_ctrls0.writeBursts                   62619                       # Number of DRAM write bursts, including those merged in the write queue
system.mem_ctrls0.bytesReadDRAM              14032576                       # Total number of bytes read from DRAM
system.mem_ctrls0.bytesReadWrQ                   1600                       # Total number of bytes read from write queue
system.mem_ctrls0.bytesWritten                4007616                       # Total number of bytes written to DRAM
system.mem_ctrls0.bytesReadSys               14034176                       # Total read bytes from the system interface side
system.mem_ctrls0.bytesWrittenSys             4007616                       # Total written bytes from the system interface side
system.mem_ctrls0.servicedByWrQ                    25                       # Number of DRAM read bursts serviced by the write queue
system.mem_ctrls0.mergedWrBursts                    0                       # Number of DRAM write bursts merged with an existing one
system.mem_ctrls0.neitherReadNorWriteReqs            0                       # Number of requests that are neither read nor write
system.mem_ctrls0.perBankRdBursts::0            13462                       # Per bank write bursts
system.mem_ctrls0.perBankRdBursts::1            13998                       # Per bank write bursts
system.mem_ctrls0.perBankRdBursts::2            13664                       # Per bank write bursts
system.mem_ctrls0.perBankRdBursts::3            14063                       # Per bank write bursts
system.mem_ctrls0.perBankRdBursts::4            13702                       # Per bank write bursts
system.mem_ctrls0.perBankRdBursts::5            14281                       # Per bank write bursts
system.mem_ctrls0.perBankRdBursts::6            13742                       # Per bank write bursts
system.mem_ctrls0.perBankRdBursts::7            13668                       # Per bank write bursts
system.mem_ctrls0.perBankRdBursts::8            13563                       # Per bank write bursts
system.mem_ctrls0.perBankRdBursts::9            13898                       # Per bank write bursts
system.mem_ctrls0.perBankRdBursts::10           13605                       # Per bank write bursts
system.mem_ctrls0.perBankRdBursts::11           13836                       # Per bank write bursts
system.mem_ctrls0.perBankRdBursts::12           13385                       # Per bank write bursts
system.mem_ctrls0.perBankRdBursts::13           13263                       # Per bank write bursts
system.mem_ctrls0.perBankRdBursts::14           13559                       # Per bank write bursts
system.mem_ctrls0.perBankRdBursts::15           13570                       # Per bank write bursts
system.mem_ctrls0.perBankWrBursts::0             3845                       # Per bank write bursts
system.mem_ctrls0.perBankWrBursts::1             3927                       # Per bank write bursts
system.mem_ctrls0.perBankWrBursts::2             3906                       # Per bank write bursts
system.mem_ctrls0.perBankWrBursts::3             4132                       # Per bank write bursts
system.mem_ctrls0.perBankWrBursts::4             3927                       # Per bank write bursts
system.mem_ctrls0.perBankWrBursts::5             4077                       # Per bank write bursts
system.mem_ctrls0.perBankWrBursts::6             3983                       # Per bank write bursts
system.mem_ctrls0.perBankWrBursts::7             3947                       # Per bank write bursts
system.mem_ctrls0.perBankWrBursts::8             3818                       # Per bank write bursts
system.mem_ctrls0.perBankWrBursts::9             4072                       # Per bank write bursts
system.mem_ctrls0.perBankWrBursts::10            3842                       # Per bank write bursts
system.mem_ctrls0.perBankWrBursts::11            3777                       # Per bank write bursts
system.mem_ctrls0.perBankWrBursts::12            3724                       # Per bank write bursts
system.mem_ctrls0.perBankWrBursts::13            3760                       # Per bank write bursts
system.mem_ctrls0.perBankWrBursts::14            4009                       # Per bank write bursts
system.mem_ctrls0.perBankWrBursts::15            3873                       # Per bank write bursts
system.mem_ctrls0.numRdRetry                      725                       # Number of times read queue was full causing retry
system.mem_ctrls0.numWrRetry                      467                       # Number of times write queue was full causing retry
system.mem_ctrls0.totGap                  59745897000                       # Total gap between requests
system.mem_ctrls0.readPktSize::0                    0                       # Read request sizes (log2)
system.mem_ctrls0.readPktSize::1                    0                       # Read request sizes (log2)
system.mem_ctrls0.readPktSize::2                    0                       # Read request sizes (log2)
system.mem_ctrls0.readPktSize::3                    0                       # Read request sizes (log2)
system.mem_ctrls0.readPktSize::4                    0                       # Read request sizes (log2)
system.mem_ctrls0.readPktSize::5                    0                       # Read request sizes (log2)
system.mem_ctrls0.readPktSize::6               219284                       # Read request sizes (log2)
system.mem_ctrls0.writePktSize::0                   0                       # Write request sizes (log2)
system.mem_ctrls0.writePktSize::1                   0                       # Write request sizes (log2)
system.mem_ctrls0.writePktSize::2                   0                       # Write request sizes (log2)
system.mem_ctrls0.writePktSize::3                   0                       # Write request sizes (log2)
system.mem_ctrls0.writePktSize::4                   0                       # Write request sizes (log2)
system.mem_ctrls0.writePktSize::5                   0                       # Write request sizes (log2)
system.mem_ctrls0.writePktSize::6               62619                       # Write request sizes (log2)
system.mem_ctrls0.rdQLenPdf::0                 160597                       # What read queue length does an incoming req see
system.mem_ctrls0.rdQLenPdf::1                  42641                       # What read queue length does an incoming req see
system.mem_ctrls0.rdQLenPdf::2                  11183                       # What read queue length does an incoming req see
system.mem_ctrls0.rdQLenPdf::3                   2531                       # What read queue length does an incoming req see
system.mem_ctrls0.rdQLenPdf::4                    601                       # What read queue length does an incoming req see
system.mem_ctrls0.rdQLenPdf::5                    144                       # What read queue length does an incoming req see
system.mem_ctrls0.rdQLenPdf::6                     60                       # What read queue length does an incoming req see
system.mem_ctrls0.rdQLenPdf::7                     41                       # What read queue length does an incoming req see
system.mem_ctrls0.rdQLenPdf::8                     49                       # What read queue length does an incoming req see
system.mem_ctrls0.rdQLenPdf::9                     39                       # What read queue length does an incoming req see
system.mem_ctrls0.rdQLenPdf::10                    36                       # What read queue length does an incoming req see
system.mem_ctrls0.rdQLenPdf::11                    50                       # What read queue length does an incoming req see
system.mem_ctrls0.rdQLenPdf::12                    44                       # What read queue length does an incoming req see
system.mem_ctrls0.rdQLenPdf::13                    34                       # What read queue length does an incoming req see
system.mem_ctrls0.rdQLenPdf::14                    40                       # What read queue length does an incoming req see
system.mem_ctrls0.rdQLenPdf::15                    33                       # What read queue length does an incoming req see
system.mem_ctrls0.rdQLenPdf::16                    44                       # What read queue length does an incoming req see
system.mem_ctrls0.rdQLenPdf::17                    39                       # What read queue length does an incoming req see
system.mem_ctrls0.rdQLenPdf::18                    35                       # What read queue length does an incoming req see
system.mem_ctrls0.rdQLenPdf::19                    30                       # What read queue length does an incoming req see
system.mem_ctrls0.rdQLenPdf::20                    14                       # What read queue length does an incoming req see
system.mem_ctrls0.rdQLenPdf::21                    14                       # What read queue length does an incoming req see
system.mem_ctrls0.rdQLenPdf::22                    20                       # What read queue length does an incoming req see
system.mem_ctrls0.rdQLenPdf::23                    18                       # What read queue length does an incoming req see
system.mem_ctrls0.rdQLenPdf::24                    18                       # What read queue length does an incoming req see
system.mem_ctrls0.rdQLenPdf::25                    11                       # What read queue length does an incoming req see
system.mem_ctrls0.rdQLenPdf::26                    11                       # What read queue length does an incoming req see
system.mem_ctrls0.rdQLenPdf::27                    12                       # What read queue length does an incoming req see
system.mem_ctrls0.rdQLenPdf::28                    13                       # What read queue length does an incoming req see
system.mem_ctrls0.rdQLenPdf::29                    18                       # What read queue length does an incoming req see
system.mem_ctrls0.rdQLenPdf::30                    36                       # What read queue length does an incoming req see
system.mem_ctrls0.rdQLenPdf::31                   803                       # What read queue length does an incoming req see
system.mem_ctrls0.wrQLenPdf::0                  12179                       # What write queue length does an incoming req see
system.mem_ctrls0.wrQLenPdf::1                  12393                       # What write queue length does an incoming req see
system.mem_ctrls0.wrQLenPdf::2                  12357                       # What write queue length does an incoming req see
system.mem_ctrls0.wrQLenPdf::3                  12337                       # What write queue length does an incoming req see
system.mem_ctrls0.wrQLenPdf::4                  12316                       # What write queue length does an incoming req see
system.mem_ctrls0.wrQLenPdf::5                    206                       # What write queue length does an incoming req see
system.mem_ctrls0.wrQLenPdf::6                    166                       # What write queue length does an incoming req see
system.mem_ctrls0.wrQLenPdf::7                    665                       # What write queue length does an incoming req see
system.mem_ctrls0.bytesPerActivate::samples        86040                       # Bytes accessed per row activation
system.mem_ctrls0.bytesPerActivate::mean   209.666202                       # Bytes accessed per row activation
system.mem_ctrls0.bytesPerActivate::gmean   135.130603                       # Bytes accessed per row activation
system.mem_ctrls0.bytesPerActivate::stdev   238.516120                       # Bytes accessed per row activation
system.mem_ctrls0.bytesPerActivate::0-127        42036     48.86%     48.86% # Bytes accessed per row activation
system.mem_ctrls0.bytesPerActivate::128-255        17869     20.77%     69.62% # Bytes accessed per row activation
system.mem_ctrls0.bytesPerActivate::256-383        14800     17.20%     86.83% # Bytes accessed per row activation
system.mem_ctrls0.bytesPerActivate::384-511         2698      3.14%     89.96% # Bytes accessed per row activation
system.mem_ctrls0.bytesPerActivate::512-639         1809      2.10%     92.06% # Bytes accessed per row activation
system.mem_ctrls0.bytesPerActivate::640-767         1237      1.44%     93.50% # Bytes accessed per row activation
system.mem_ctrls0.bytesPerActivate::768-895         1129      1.31%     94.81% # Bytes accessed per row activation
system.mem_ctrls0.bytesPerActivate::896-1023          845      0.98%     95.80% # Bytes accessed per row activation
system.mem_ctrls0.bytesPerActivate::1024-1151         3617      4.20%    100.00% # Bytes accessed per row activation
system.mem_ctrls0.bytesPerActivate::total        86040                       # Bytes accessed per row activation
system.mem_ctrls0.rdPerTurnAround::samples        12234                       # Reads before turning the bus around for writes
system.mem_ctrls0.rdPerTurnAround::mean     17.866683                       # Reads before turning the bus around for writes
system.mem_ctrls0.rdPerTurnAround::stdev    75.771259                       # Reads before turning the bus around for writes
system.mem_ctrls0.rdPerTurnAround::0-127        11867     97.00%     97.00% # Reads before turning the bus around for writes
system.mem_ctrls0.rdPerTurnAround::128-255          178      1.45%     98.46% # Reads before turning the bus around for writes
system.mem_ctrls0.rdPerTurnAround::256-383           89      0.73%     99.18% # Reads before turning the bus around for writes
system.mem_ctrls0.rdPerTurnAround::384-511           53      0.43%     99.62% # Reads before turning the bus around for writes
system.mem_ctrls0.rdPerTurnAround::512-639           24      0.20%     99.81% # Reads before turning the bus around for writes
system.mem_ctrls0.rdPerTurnAround::640-767            8      0.07%     99.88% # Reads before turning the bus around for writes
system.mem_ctrls0.rdPerTurnAround::768-895            4      0.03%     99.91% # Reads before turning the bus around for writes
system.mem_ctrls0.rdPerTurnAround::896-1023            3      0.02%     99.93% # Reads before turning the bus around for writes
system.mem_ctrls0.rdPerTurnAround::1024-1151            2      0.02%     99.95% # Reads before turning the bus around for writes
system.mem_ctrls0.rdPerTurnAround::1152-1279            1      0.01%     99.96% # Reads before turning the bus around for writes
system.mem_ctrls0.rdPerTurnAround::1280-1407            1      0.01%     99.97% # Reads before turning the bus around for writes
system.mem_ctrls0.rdPerTurnAround::1536-1663            2      0.02%     99.98% # Reads before turning the bus around for writes
system.mem_ctrls0.rdPerTurnAround::1664-1791            1      0.01%     99.99% # Reads before turning the bus around for writes
system.mem_ctrls0.rdPerTurnAround::3968-4095            1      0.01%    100.00% # Reads before turning the bus around for writes
system.mem_ctrls0.rdPerTurnAround::total        12234                       # Reads before turning the bus around for writes
system.mem_ctrls0.wrPerTurnAround::samples        12234                       # Writes before turning the bus around for reads
system.mem_ctrls0.wrPerTurnAround::mean      5.118440                       # Writes before turning the bus around for reads
system.mem_ctrls0.wrPerTurnAround::gmean     5.079427                       # Writes before turning the bus around for reads
system.mem_ctrls0.wrPerTurnAround::stdev     0.910235                       # Writes before turning the bus around for reads
system.mem_ctrls0.wrPerTurnAround::4-7          12115     99.03%     99.03% # Writes before turning the bus around for reads
system.mem_ctrls0.wrPerTurnAround::8-11            37      0.30%     99.33% # Writes before turning the bus around for reads
system.mem_ctrls0.wrPerTurnAround::12-15           18      0.15%     99.48% # Writes before turning the bus around for reads
system.mem_ctrls0.wrPerTurnAround::16-19           64      0.52%    100.00% # Writes before turning the bus around for reads
system.mem_ctrls0.wrPerTurnAround::total        12234                       # Writes before turning the bus around for reads
system.mem_ctrls0.totQLat                  3045947211                       # Total ticks spent queuing
system.mem_ctrls0.totMemAccLat             7157053461                       # Total ticks spent from burst creation until serviced by the DRAM
system.mem_ctrls0.totBusLat                1096295000                       # Total ticks spent in databus transfers
system.mem_ctrls0.avgQLat                    13892.01                       # Average queueing delay per DRAM burst
system.mem_ctrls0.avgBusLat                   5000.00                       # Average bus latency per DRAM burst
system.mem_ctrls0.avgMemAccLat               32642.01                       # Average memory access latency per DRAM burst
system.mem_ctrls0.avgRdBW                      234.87                       # Average DRAM read bandwidth in MiByte/s
system.mem_ctrls0.avgWrBW                       67.08                       # Average achieved write bandwidth in MiByte/s
system.mem_ctrls0.avgRdBWSys                   234.90                       # Average system read bandwidth in MiByte/s
system.mem_ctrls0.avgWrBWSys                    67.08                       # Average system write bandwidth in MiByte/s
system.mem_ctrls0.peakBW                     12800.00                       # Theoretical peak bandwidth in MiByte/s
system.mem_ctrls0.busUtil                        2.36                       # Data bus utilization in percentage
system.mem_ctrls0.busUtilRead                    1.83                       # Data bus utilization in percentage for reads
system.mem_ctrls0.busUtilWrite                   0.52                       # Data bus utilization in percentage for writes
system.mem_ctrls0.avgRdQLen                      1.12                       # Average read queue length when enqueuing
system.mem_ctrls0.avgWrQLen                      2.88                       # Average write queue length when enqueuing
system.mem_ctrls0.readRowHits                  157346                       # Number of row buffer hits during reads
system.mem_ctrls0.writeRowHits                  38487                       # Number of row buffer hits during writes
system.mem_ctrls0.readRowHitRate                71.76                       # Row buffer hit rate for reads
system.mem_ctrls0.writeRowHitRate               61.46                       # Row buffer hit rate for writes
system.mem_ctrls0.avgGap                    211937.78                       # Average gap between requests
system.mem_ctrls0.pageHitRate                   69.47                       # Row buffer hit rate, read and write combined
system.mem_ctrls0.memoryStateTime::IDLE   10793653000                       # Time in different power states
system.mem_ctrls0.memoryStateTime::REF     1994980000                       # Time in different power states
system.mem_ctrls0.memoryStateTime::PRE_PDN            0                       # Time in different power states
system.mem_ctrls0.memoryStateTime::ACT    46955537000                       # Time in different power states
system.mem_ctrls0.memoryStateTime::ACT_PDN            0                       # Time in different power states
system.mem_ctrls0.actEnergy::0              329124600                       # Energy for activate commands per rank (pJ)
system.mem_ctrls0.actEnergy::1              321322680                       # Energy for activate commands per rank (pJ)
system.mem_ctrls0.preEnergy::0              179581875                       # Energy for precharge commands per rank (pJ)
system.mem_ctrls0.preEnergy::1              175324875                       # Energy for precharge commands per rank (pJ)
system.mem_ctrls0.readEnergy::0             862477200                       # Energy for read commands per rank (pJ)
system.mem_ctrls0.readEnergy::1             847657200                       # Energy for read commands per rank (pJ)
system.mem_ctrls0.writeEnergy::0            205701120                       # Energy for write commands per rank (pJ)
system.mem_ctrls0.writeEnergy::1            200070000                       # Energy for write commands per rank (pJ)
system.mem_ctrls0.refreshEnergy::0         3902180880                       # Energy for refresh commands per rank (pJ)
system.mem_ctrls0.refreshEnergy::1         3902180880                       # Energy for refresh commands per rank (pJ)
system.mem_ctrls0.actBackEnergy::0        25616374560                       # Energy for active background per rank (pJ)
system.mem_ctrls0.actBackEnergy::1        24923552670                       # Energy for active background per rank (pJ)
system.mem_ctrls0.preBackEnergy::0        13375989750                       # Energy for precharge background per rank (pJ)
system.mem_ctrls0.preBackEnergy::1        13983728250                       # Energy for precharge background per rank (pJ)
system.mem_ctrls0.totalEnergy::0          44471429985                       # Total energy per rank (pJ)
system.mem_ctrls0.totalEnergy::1          44353836555                       # Total energy per rank (pJ)
system.mem_ctrls0.averagePower::0          744.364517                       # Core power per rank (mW)
system.mem_ctrls0.averagePower::1          742.396233                       # Core power per rank (mW)
system.mem_ctrls1.bytes_read::ruby.dir_cntrl1     13851200                       # Number of bytes read from this memory
system.mem_ctrls1.bytes_read::total          13851200                       # Number of bytes read from this memory
system.mem_ctrls1.bytes_written::ruby.dir_cntrl1      3840704                       # Number of bytes written to this memory
system.mem_ctrls1.bytes_written::total        3840704                       # Number of bytes written to this memory
system.mem_ctrls1.num_reads::ruby.dir_cntrl1       216425                       # Number of read requests responded to by this memory
system.mem_ctrls1.num_reads::total             216425                       # Number of read requests responded to by this memory
system.mem_ctrls1.num_writes::ruby.dir_cntrl1        60011                       # Number of write requests responded to by this memory
system.mem_ctrls1.num_writes::total             60011                       # Number of write requests responded to by this memory
system.mem_ctrls1.bw_read::ruby.dir_cntrl1    231833258                       # Total read bandwidth from this memory (bytes/s)
system.mem_ctrls1.bw_read::total            231833258                       # Total read bandwidth from this memory (bytes/s)
system.mem_ctrls1.bw_write::ruby.dir_cntrl1     64283450                       # Write bandwidth from this memory (bytes/s)
system.mem_ctrls1.bw_write::total            64283450                       # Write bandwidth from this memory (bytes/s)
system.mem_ctrls1.bw_total::ruby.dir_cntrl1    296116708                       # Total bandwidth to/from this memory (bytes/s)
system.mem_ctrls1.bw_total::total           296116708                       # Total bandwidth to/from this memory (bytes/s)
system.mem_ctrls1.readReqs                     216425                       # Number of read requests accepted
system.mem_ctrls1.writeReqs                     60011                       # Number of write requests accepted
system.mem_ctrls1.readBursts                   216425                       # Number of DRAM read bursts, including those serviced by the write queue
system.mem_ctrls1.writeBursts                   60011                       # Number of DRAM write bursts, including those merged in the write queue
system.mem_ctrls1.bytesReadDRAM              13849536                       # Total number of bytes read from DRAM
system.mem_ctrls1.bytesReadWrQ                   1664                       # Total number of bytes read from write queue
system.mem_ctrls1.bytesWritten                3840512                       # Total number of bytes written to DRAM
system.mem_ctrls1.bytesReadSys               13851200                       # Total read bytes from the system interface side
system.mem_ctrls1.bytesWrittenSys             3840704                       # Total written bytes from the system interface side
system.mem_ctrls1.servicedByWrQ                    26                       # Number of DRAM read bursts serviced by the write queue
system.mem_ctrls1.mergedWrBursts                    0                       # Number of DRAM write bursts merged with an existing one
system.mem_ctrls1.neitherReadNorWriteReqs            0                       # Number of requests that are neither read nor write
system.mem_ctrls1.perBankRdBursts::0            13290                       # Per bank write bursts
system.mem_ctrls1.perBankRdBursts::1            13819                       # Per bank write bursts
system.mem_ctrls1.perBankRdBursts::2            13485                       # Per bank write bursts
system.mem_ctrls1.perBankRdBursts::3            13893                       # Per bank write bursts
system.mem_ctrls1.perBankRdBursts::4            13534                       # Per bank write bursts
system.mem_ctrls1.perBankRdBursts::5            14117                       # Per bank write bursts
system.mem_ctrls1.perBankRdBursts::6            13535                       # Per bank write bursts
system.mem_ctrls1.perBankRdBursts::7            13510                       # Per bank write bursts
system.mem_ctrls1.perBankRdBursts::8            13401                       # Per bank write bursts
system.mem_ctrls1.perBankRdBursts::9            13712                       # Per bank write bursts
system.mem_ctrls1.perBankRdBursts::10           13419                       # Per bank write bursts
system.mem_ctrls1.perBankRdBursts::11           13654                       # Per bank write bursts
system.mem_ctrls1.perBankRdBursts::12           13210                       # Per bank write bursts
system.mem_ctrls1.perBankRdBursts::13           13105                       # Per bank write bursts
system.mem_ctrls1.perBankRdBursts::14           13294                       # Per bank write bursts
system.mem_ctrls1.perBankRdBursts::15           13421                       # Per bank write bursts
system.mem_ctrls1.perBankWrBursts::0             3686                       # Per bank write bursts
system.mem_ctrls1.perBankWrBursts::1             3780                       # Per bank write bursts
system.mem_ctrls1.perBankWrBursts::2             3765                       # Per bank write bursts
system.mem_ctrls1.perBankWrBursts::3             3979                       # Per bank write bursts
system.mem_ctrls1.perBankWrBursts::4             3771                       # Per bank write bursts
system.mem_ctrls1.perBankWrBursts::5             3924                       # Per bank write bursts
system.mem_ctrls1.perBankWrBursts::6             3803                       # Per bank write bursts
system.mem_ctrls1.perBankWrBursts::7             3779                       # Per bank write bursts
system.mem_ctrls1.perBankWrBursts::8             3663                       # Per bank write bursts
system.mem_ctrls1.perBankWrBursts::9             3898                       # Per bank write bursts
system.mem_ctrls1.perBankWrBursts::10            3678                       # Per bank write bursts
system.mem_ctrls1.perBankWrBursts::11            3611                       # Per bank write bursts
system.mem_ctrls1.perBankWrBursts::12            3566                       # Per bank write bursts
system.mem_ctrls1.perBankWrBursts::13            3595                       # Per bank write bursts
system.mem_ctrls1.perBankWrBursts::14            3794                       # Per bank write bursts
system.mem_ctrls1.perBankWrBursts::15            3716                       # Per bank write bursts
system.mem_ctrls1.numRdRetry                      508                       # Number of times read queue was full causing retry
system.mem_ctrls1.numWrRetry                      342                       # Number of times write queue was full causing retry
system.mem_ctrls1.totGap                  59745638500                       # Total gap between requests
system.mem_ctrls1.readPktSize::0                    0                       # Read request sizes (log2)
system.mem_ctrls1.readPktSize::1                    0                       # Read request sizes (log2)
system.mem_ctrls1.readPktSize::2                    0                       # Read request sizes (log2)
system.mem_ctrls1.readPktSize::3                    0                       # Read request sizes (log2)
system.mem_ctrls1.readPktSize::4                    0                       # Read request sizes (log2)
system.mem_ctrls1.readPktSize::5                    0                       # Read request sizes (log2)
system.mem_ctrls1.readPktSize::6               216425                       # Read request sizes (log2)
system.mem_ctrls1.writePktSize::0                   0                       # Write request sizes (log2)
system.mem_ctrls1.writePktSize::1                   0                       # Write request sizes (log2)
system.mem_ctrls1.writePktSize::2                   0                       # Write request sizes (log2)
system.mem_ctrls1.writePktSize::3                   0                       # Write request sizes (log2)
system.mem_ctrls1.writePktSize::4                   0                       # Write request sizes (log2)
system.mem_ctrls1.writePktSize::5                   0                       # Write request sizes (log2)
system.mem_ctrls1.writePktSize::6               60011                       # Write request sizes (log2)
system.mem_ctrls1.rdQLenPdf::0                 158391                       # What read queue length does an incoming req see
system.mem_ctrls1.rdQLenPdf::1                  43024                       # What read queue length does an incoming req see
system.mem_ctrls1.rdQLenPdf::2                  10695                       # What read queue length does an incoming req see
system.mem_ctrls1.rdQLenPdf::3                   2320                       # What read queue length does an incoming req see
system.mem_ctrls1.rdQLenPdf::4                    443                       # What read queue length does an incoming req see
system.mem_ctrls1.rdQLenPdf::5                    125                       # What read queue length does an incoming req see
system.mem_ctrls1.rdQLenPdf::6                     66                       # What read queue length does an incoming req see
system.mem_ctrls1.rdQLenPdf::7                     69                       # What read queue length does an incoming req see
system.mem_ctrls1.rdQLenPdf::8                     62                       # What read queue length does an incoming req see
system.mem_ctrls1.rdQLenPdf::9                     70                       # What read queue length does an incoming req see
system.mem_ctrls1.rdQLenPdf::10                    59                       # What read queue length does an incoming req see
system.mem_ctrls1.rdQLenPdf::11                    52                       # What read queue length does an incoming req see
system.mem_ctrls1.rdQLenPdf::12                    49                       # What read queue length does an incoming req see
system.mem_ctrls1.rdQLenPdf::13                    52                       # What read queue length does an incoming req see
system.mem_ctrls1.rdQLenPdf::14                    46                       # What read queue length does an incoming req see
system.mem_ctrls1.rdQLenPdf::15                    32                       # What read queue length does an incoming req see
system.mem_ctrls1.rdQLenPdf::16                    24                       # What read queue length does an incoming req see
system.mem_ctrls1.rdQLenPdf::17                    29                       # What read queue length does an incoming req see
system.mem_ctrls1.rdQLenPdf::18                    21                       # What read queue length does an incoming req see
system.mem_ctrls1.rdQLenPdf::19                    24                       # What read queue length does an incoming req see
system.mem_ctrls1.rdQLenPdf::20                    17                       # What read queue length does an incoming req see
system.mem_ctrls1.rdQLenPdf::21                    17                       # What read queue length does an incoming req see
system.mem_ctrls1.rdQLenPdf::22                    22                       # What read queue length does an incoming req see
system.mem_ctrls1.rdQLenPdf::23                    15                       # What read queue length does an incoming req see
system.mem_ctrls1.rdQLenPdf::24                    18                       # What read queue length does an incoming req see
system.mem_ctrls1.rdQLenPdf::25                    12                       # What read queue length does an incoming req see
system.mem_ctrls1.rdQLenPdf::26                    13                       # What read queue length does an incoming req see
system.mem_ctrls1.rdQLenPdf::27                    17                       # What read queue length does an incoming req see
system.mem_ctrls1.rdQLenPdf::28                    14                       # What read queue length does an incoming req see
system.mem_ctrls1.rdQLenPdf::29                    12                       # What read queue length does an incoming req see
system.mem_ctrls1.rdQLenPdf::30                    19                       # What read queue length does an incoming req see
system.mem_ctrls1.rdQLenPdf::31                   570                       # What read queue length does an incoming req see
system.mem_ctrls1.wrQLenPdf::0                  11685                       # What write queue length does an incoming req see
system.mem_ctrls1.wrQLenPdf::1                  11889                       # What write queue length does an incoming req see
system.mem_ctrls1.wrQLenPdf::2                  11859                       # What write queue length does an incoming req see
system.mem_ctrls1.wrQLenPdf::3                  11846                       # What write queue length does an incoming req see
system.mem_ctrls1.wrQLenPdf::4                  11819                       # What write queue length does an incoming req see
system.mem_ctrls1.wrQLenPdf::5                    226                       # What write queue length does an incoming req see
system.mem_ctrls1.wrQLenPdf::6                    163                       # What write queue length does an incoming req see
system.mem_ctrls1.wrQLenPdf::7                    524                       # What write queue length does an incoming req see
system.mem_ctrls1.bytesPerActivate::samples        81428                       # Bytes accessed per row activation
system.mem_ctrls1.bytesPerActivate::mean   217.239868                       # Bytes accessed per row activation
system.mem_ctrls1.bytesPerActivate::gmean   139.191382                       # Bytes accessed per row activation
system.mem_ctrls1.bytesPerActivate::stdev   244.926813                       # Bytes accessed per row activation
system.mem_ctrls1.bytesPerActivate::0-127        38459     47.23%     47.23% # Bytes accessed per row activation
system.mem_ctrls1.bytesPerActivate::128-255        17117     21.02%     68.25% # Bytes accessed per row activation
system.mem_ctrls1.bytesPerActivate::256-383        14454     17.75%     86.00% # Bytes accessed per row activation
system.mem_ctrls1.bytesPerActivate::384-511         2557      3.14%     89.14% # Bytes accessed per row activation
system.mem_ctrls1.bytesPerActivate::512-639         1875      2.30%     91.45% # Bytes accessed per row activation
system.mem_ctrls1.bytesPerActivate::640-767         1281      1.57%     93.02% # Bytes accessed per row activation
system.mem_ctrls1.bytesPerActivate::768-895         1122      1.38%     94.40% # Bytes accessed per row activation
system.mem_ctrls1.bytesPerActivate::896-1023          903      1.11%     95.51% # Bytes accessed per row activation
system.mem_ctrls1.bytesPerActivate::1024-1151         3660      4.49%    100.00% # Bytes accessed per row activation
system.mem_ctrls1.bytesPerActivate::total        81428                       # Bytes accessed per row activation
system.mem_ctrls1.rdPerTurnAround::samples        11723                       # Reads before turning the bus around for writes
system.mem_ctrls1.rdPerTurnAround::mean     18.295573                       # Reads before turning the bus around for writes
system.mem_ctrls1.rdPerTurnAround::stdev    74.585556                       # Reads before turning the bus around for writes
system.mem_ctrls1.rdPerTurnAround::0-127        11351     96.83%     96.83% # Reads before turning the bus around for writes
system.mem_ctrls1.rdPerTurnAround::128-255          184      1.57%     98.40% # Reads before turning the bus around for writes
system.mem_ctrls1.rdPerTurnAround::256-383           95      0.81%     99.21% # Reads before turning the bus around for writes
system.mem_ctrls1.rdPerTurnAround::384-511           50      0.43%     99.63% # Reads before turning the bus around for writes
system.mem_ctrls1.rdPerTurnAround::512-639           24      0.20%     99.84% # Reads before turning the bus around for writes
system.mem_ctrls1.rdPerTurnAround::640-767            6      0.05%     99.89% # Reads before turning the bus around for writes
system.mem_ctrls1.rdPerTurnAround::768-895            4      0.03%     99.92% # Reads before turning the bus around for writes
system.mem_ctrls1.rdPerTurnAround::1024-1151            2      0.02%     99.94% # Reads before turning the bus around for writes
system.mem_ctrls1.rdPerTurnAround::1152-1279            2      0.02%     99.96% # Reads before turning the bus around for writes
system.mem_ctrls1.rdPerTurnAround::1664-1791            1      0.01%     99.97% # Reads before turning the bus around for writes
system.mem_ctrls1.rdPerTurnAround::1792-1919            2      0.02%     99.98% # Reads before turning the bus around for writes
system.mem_ctrls1.rdPerTurnAround::2048-2175            1      0.01%     99.99% # Reads before turning the bus around for writes
system.mem_ctrls1.rdPerTurnAround::2816-2943            1      0.01%    100.00% # Reads before turning the bus around for writes
system.mem_ctrls1.rdPerTurnAround::total        11723                       # Reads before turning the bus around for writes
system.mem_ctrls1.wrPerTurnAround::samples        11723                       # Writes before turning the bus around for reads
system.mem_ctrls1.wrPerTurnAround::mean      5.118826                       # Writes before turning the bus around for reads
system.mem_ctrls1.wrPerTurnAround::gmean     5.082437                       # Writes before turning the bus around for reads
system.mem_ctrls1.wrPerTurnAround::stdev     0.867894                       # Writes before turning the bus around for reads
system.mem_ctrls1.wrPerTurnAround::4-7          11611     99.04%     99.04% # Writes before turning the bus around for reads
system.mem_ctrls1.wrPerTurnAround::8-11            42      0.36%     99.40% # Writes before turning the bus around for reads
system.mem_ctrls1.wrPerTurnAround::12-15           19      0.16%     99.56% # Writes before turning the bus around for reads
system.mem_ctrls1.wrPerTurnAround::16-19           51      0.44%    100.00% # Writes before turning the bus around for reads
system.mem_ctrls1.wrPerTurnAround::total        11723                       # Writes before turning the bus around for reads
system.mem_ctrls1.totQLat                  2855324770                       # Total ticks spent queuing
system.mem_ctrls1.totMemAccLat             6912806020                       # Total ticks spent from burst creation until serviced by the DRAM
system.mem_ctrls1.totBusLat                1081995000                       # Total ticks spent in databus transfers
system.mem_ctrls1.avgQLat                    13194.72                       # Average queueing delay per DRAM burst
system.mem_ctrls1.avgBusLat                   5000.00                       # Average bus latency per DRAM burst
system.mem_ctrls1.avgMemAccLat               31944.72                       # Average memory access latency per DRAM burst
system.mem_ctrls1.avgRdBW                      231.81                       # Average DRAM read bandwidth in MiByte/s
system.mem_ctrls1.avgWrBW                       64.28                       # Average achieved write bandwidth in MiByte/s
system.mem_ctrls1.avgRdBWSys                   231.83                       # Average system read bandwidth in MiByte/s
system.mem_ctrls1.avgWrBWSys                    64.28                       # Average system write bandwidth in MiByte/s
system.mem_ctrls1.peakBW                     12800.00                       # Theoretical peak bandwidth in MiByte/s
system.mem_ctrls1.busUtil                        2.31                       # Data bus utilization in percentage
system.mem_ctrls1.busUtilRead                    1.81                       # Data bus utilization in percentage for reads
system.mem_ctrls1.busUtilWrite                   0.50                       # Data bus utilization in percentage for writes
system.mem_ctrls1.avgRdQLen                      1.10                       # Average read queue length when enqueuing
system.mem_ctrls1.avgWrQLen                      2.92                       # Average write queue length when enqueuing
system.mem_ctrls1.readRowHits                  156121                       # Number of row buffer hits during reads
system.mem_ctrls1.writeRowHits                  38853                       # Number of row buffer hits during writes
system.mem_ctrls1.readRowHitRate                72.14                       # Row buffer hit rate for reads
system.mem_ctrls1.writeRowHitRate               64.74                       # Row buffer hit rate for writes
system.mem_ctrls1.avgGap                    216128.28                       # Average gap between requests
system.mem_ctrls1.pageHitRate                   70.54                       # Row buffer hit rate, read and write combined
system.mem_ctrls1.memoryStateTime::IDLE   11225520750                       # Time in different power states
system.mem_ctrls1.memoryStateTime::REF     1994980000                       # Time in different power states
system.mem_ctrls1.memoryStateTime::PRE_PDN            0                       # Time in different power states
system.mem_ctrls1.memoryStateTime::ACT    46523852250                       # Time in different power states
system.mem_ctrls1.memoryStateTime::ACT_PDN            0                       # Time in different power states
system.mem_ctrls1.actEnergy::0              312371640                       # Energy for activate commands per rank (pJ)
system.mem_ctrls1.actEnergy::1              303224040                       # Energy for activate commands per rank (pJ)
system.mem_ctrls1.preEnergy::0              170440875                       # Energy for precharge commands per rank (pJ)
system.mem_ctrls1.preEnergy::1              165449625                       # Energy for precharge commands per rank (pJ)
system.mem_ctrls1.readEnergy::0             851588400                       # Energy for read commands per rank (pJ)
system.mem_ctrls1.readEnergy::1             836245800                       # Energy for read commands per rank (pJ)
system.mem_ctrls1.writeEnergy::0            197555760                       # Energy for write commands per rank (pJ)
system.mem_ctrls1.writeEnergy::1            191296080                       # Energy for write commands per rank (pJ)
system.mem_ctrls1.refreshEnergy::0         3902180880                       # Energy for refresh commands per rank (pJ)
system.mem_ctrls1.refreshEnergy::1         3902180880                       # Energy for refresh commands per rank (pJ)
system.mem_ctrls1.actBackEnergy::0        25302999105                       # Energy for active background per rank (pJ)
system.mem_ctrls1.actBackEnergy::1        24347003085                       # Energy for active background per rank (pJ)
system.mem_ctrls1.preBackEnergy::0        13650880500                       # Energy for precharge background per rank (pJ)
system.mem_ctrls1.preBackEnergy::1        14489473500                       # Energy for precharge background per rank (pJ)
system.mem_ctrls1.totalEnergy::0          44388017160                       # Total energy per rank (pJ)
system.mem_ctrls1.totalEnergy::1          44234873010                       # Total energy per rank (pJ)
system.mem_ctrls1.averagePower::0          742.968349                       # Core power per rank (mW)
system.mem_ctrls1.averagePower::1          740.405017                       # Core power per rank (mW)
system.mem_ctrls2.bytes_read::ruby.dir_cntrl2     13851648                       # Number of bytes read from this memory
system.mem_ctrls2.bytes_read::total          13851648                       # Number of bytes read from this memory
system.mem_ctrls2.bytes_written::ruby.dir_cntrl2      3841920                       # Number of bytes written to this memory
system.mem_ctrls2.bytes_written::total        3841920                       # Number of bytes written to this memory
system.mem_ctrls2.num_reads::ruby.dir_cntrl2       216432                       # Number of read requests responded to by this memory
system.mem_ctrls2.num_reads::total             216432                       # Number of read requests responded to by this memory
system.mem_ctrls2.num_writes::ruby.dir_cntrl2        60030                       # Number of write requests responded to by this memory
system.mem_ctrls2.num_writes::total             60030                       # Number of write requests responded to by this memory
system.mem_ctrls2.bw_read::ruby.dir_cntrl2    231840756                       # Total read bandwidth from this memory (bytes/s)
system.mem_ctrls2.bw_read::total            231840756                       # Total read bandwidth from this memory (bytes/s)
system.mem_ctrls2.bw_write::ruby.dir_cntrl2     64303803                       # Write bandwidth from this memory (bytes/s)
system.mem_ctrls2.bw_write::total            64303803                       # Write bandwidth from this memory (bytes/s)
system.mem_ctrls2.bw_total::ruby.dir_cntrl2    296144559                       # Total bandwidth to/from this memory (bytes/s)
system.mem_ctrls2.bw_total::total           296144559                       # Total bandwidth to/from this memory (bytes/s)
system.mem_ctrls2.readReqs                     216432                       # Number of read requests accepted
system.mem_ctrls2.writeReqs                     60030                       # Number of write requests accepted
system.mem_ctrls2.readBursts                   216432                       # Number of DRAM read bursts, including those serviced by the write queue
system.mem_ctrls2.writeBursts                   60030                       # Number of DRAM write bursts, including those merged in the write queue
system.mem_ctrls2.bytesReadDRAM              13850816                       # Total number of bytes read from DRAM
system.mem_ctrls2.bytesReadWrQ                    832                       # Total number of bytes read from write queue
system.mem_ctrls2.bytesWritten                3841792                       # Total number of bytes written to DRAM
system.mem_ctrls2.bytesReadSys               13851648                       # Total read bytes from the system interface side
system.mem_ctrls2.bytesWrittenSys             3841920                       # Total written bytes from the system interface side
system.mem_ctrls2.servicedByWrQ                    13                       # Number of DRAM read bursts serviced by the write queue
system.mem_ctrls2.mergedWrBursts                    0                       # Number of DRAM write bursts merged with an existing one
system.mem_ctrls2.neitherReadNorWriteReqs            0                       # Number of requests that are neither read nor write
system.mem_ctrls2.perBankRdBursts::0            13292                       # Per bank write bursts
system.mem_ctrls2.perBankRdBursts::1            13833                       # Per bank write bursts
system.mem_ctrls2.perBankRdBursts::2            13508                       # Per bank write bursts
system.mem_ctrls2.perBankRdBursts::3            13918                       # Per bank write bursts
system.mem_ctrls2.perBankRdBursts::4            13546                       # Per bank write bursts
system.mem_ctrls2.perBankRdBursts::5            14106                       # Per bank write bursts
system.mem_ctrls2.perBankRdBursts::6            13493                       # Per bank write bursts
system.mem_ctrls2.perBankRdBursts::7            13498                       # Per bank write bursts
system.mem_ctrls2.perBankRdBursts::8            13395                       # Per bank write bursts
system.mem_ctrls2.perBankRdBursts::9            13711                       # Per bank write bursts
system.mem_ctrls2.perBankRdBursts::10           13425                       # Per bank write bursts
system.mem_ctrls2.perBankRdBursts::11           13701                       # Per bank write bursts
system.mem_ctrls2.perBankRdBursts::12           13205                       # Per bank write bursts
system.mem_ctrls2.perBankRdBursts::13           13068                       # Per bank write bursts
system.mem_ctrls2.perBankRdBursts::14           13299                       # Per bank write bursts
system.mem_ctrls2.perBankRdBursts::15           13421                       # Per bank write bursts
system.mem_ctrls2.perBankWrBursts::0             3681                       # Per bank write bursts
system.mem_ctrls2.perBankWrBursts::1             3777                       # Per bank write bursts
system.mem_ctrls2.perBankWrBursts::2             3762                       # Per bank write bursts
system.mem_ctrls2.perBankWrBursts::3             3992                       # Per bank write bursts
system.mem_ctrls2.perBankWrBursts::4             3770                       # Per bank write bursts
system.mem_ctrls2.perBankWrBursts::5             3914                       # Per bank write bursts
system.mem_ctrls2.perBankWrBursts::6             3812                       # Per bank write bursts
system.mem_ctrls2.perBankWrBursts::7             3786                       # Per bank write bursts
system.mem_ctrls2.perBankWrBursts::8             3665                       # Per bank write bursts
system.mem_ctrls2.perBankWrBursts::9             3906                       # Per bank write bursts
system.mem_ctrls2.perBankWrBursts::10            3673                       # Per bank write bursts
system.mem_ctrls2.perBankWrBursts::11            3608                       # Per bank write bursts
system.mem_ctrls2.perBankWrBursts::12            3575                       # Per bank write bursts
system.mem_ctrls2.perBankWrBursts::13            3589                       # Per bank write bursts
system.mem_ctrls2.perBankWrBursts::14            3799                       # Per bank write bursts
system.mem_ctrls2.perBankWrBursts::15            3719                       # Per bank write bursts
system.mem_ctrls2.numRdRetry                      505                       # Number of times read queue was full causing retry
system.mem_ctrls2.numWrRetry                      287                       # Number of times write queue was full causing retry
system.mem_ctrls2.totGap                  59745684500                       # Total gap between requests
system.mem_ctrls2.readPktSize::0                    0                       # Read request sizes (log2)
system.mem_ctrls2.readPktSize::1                    0                       # Read request sizes (log2)
system.mem_ctrls2.readPktSize::2                    0                       # Read request sizes (log2)
system.mem_ctrls2.readPktSize::3                    0                       # Read request sizes (log2)
system.mem_ctrls2.readPktSize::4                    0                       # Read request sizes (log2)
system.mem_ctrls2.readPktSize::5                    0                       # Read request sizes (log2)
system.mem_ctrls2.readPktSize::6               216432                       # Read request sizes (log2)
system.mem_ctrls2.writePktSize::0                   0                       # Write request sizes (log2)
system.mem_ctrls2.writePktSize::1                   0                       # Write request sizes (log2)
system.mem_ctrls2.writePktSize::2                   0                       # Write request sizes (log2)
system.mem_ctrls2.writePktSize::3                   0                       # Write request sizes (log2)
system.mem_ctrls2.writePktSize::4                   0                       # Write request sizes (log2)
system.mem_ctrls2.writePktSize::5                   0                       # Write request sizes (log2)
system.mem_ctrls2.writePktSize::6               60030                       # Write request sizes (log2)
system.mem_ctrls2.rdQLenPdf::0                 158562                       # What read queue length does an incoming req see
system.mem_ctrls2.rdQLenPdf::1                  42642                       # What read queue length does an incoming req see
system.mem_ctrls2.rdQLenPdf::2                  10790                       # What read queue length does an incoming req see
system.mem_ctrls2.rdQLenPdf::3                   2385                       # What read queue length does an incoming req see
system.mem_ctrls2.rdQLenPdf::4                    506                       # What read queue length does an incoming req see
system.mem_ctrls2.rdQLenPdf::5                    134                       # What read queue length does an incoming req see
system.mem_ctrls2.rdQLenPdf::6                     74                       # What read queue length does an incoming req see
system.mem_ctrls2.rdQLenPdf::7                     65                       # What read queue length does an incoming req see
system.mem_ctrls2.rdQLenPdf::8                     56                       # What read queue length does an incoming req see
system.mem_ctrls2.rdQLenPdf::9                     59                       # What read queue length does an incoming req see
system.mem_ctrls2.rdQLenPdf::10                    46                       # What read queue length does an incoming req see
system.mem_ctrls2.rdQLenPdf::11                    44                       # What read queue length does an incoming req see
system.mem_ctrls2.rdQLenPdf::12                    40                       # What read queue length does an incoming req see
system.mem_ctrls2.rdQLenPdf::13                    34                       # What read queue length does an incoming req see
system.mem_ctrls2.rdQLenPdf::14                    33                       # What read queue length does an incoming req see
system.mem_ctrls2.rdQLenPdf::15                    28                       # What read queue length does an incoming req see
system.mem_ctrls2.rdQLenPdf::16                    32                       # What read queue length does an incoming req see
system.mem_ctrls2.rdQLenPdf::17                    41                       # What read queue length does an incoming req see
system.mem_ctrls2.rdQLenPdf::18                    27                       # What read queue length does an incoming req see
system.mem_ctrls2.rdQLenPdf::19                    24                       # What read queue length does an incoming req see
system.mem_ctrls2.rdQLenPdf::20                    26                       # What read queue length does an incoming req see
system.mem_ctrls2.rdQLenPdf::21                    24                       # What read queue length does an incoming req see
system.mem_ctrls2.rdQLenPdf::22                    21                       # What read queue length does an incoming req see
system.mem_ctrls2.rdQLenPdf::23                    22                       # What read queue length does an incoming req see
system.mem_ctrls2.rdQLenPdf::24                    21                       # What read queue length does an incoming req see
system.mem_ctrls2.rdQLenPdf::25                    26                       # What read queue length does an incoming req see
system.mem_ctrls2.rdQLenPdf::26                    22                       # What read queue length does an incoming req see
system.mem_ctrls2.rdQLenPdf::27                    26                       # What read queue length does an incoming req see
system.mem_ctrls2.rdQLenPdf::28                    19                       # What read queue length does an incoming req see
system.mem_ctrls2.rdQLenPdf::29                    23                       # What read queue length does an incoming req see
system.mem_ctrls2.rdQLenPdf::30                    20                       # What read queue length does an incoming req see
system.mem_ctrls2.rdQLenPdf::31                   547                       # What read queue length does an incoming req see
system.mem_ctrls2.wrQLenPdf::0                  11694                       # What write queue length does an incoming req see
system.mem_ctrls2.wrQLenPdf::1                  11886                       # What write queue length does an incoming req see
system.mem_ctrls2.wrQLenPdf::2                  11884                       # What write queue length does an incoming req see
system.mem_ctrls2.wrQLenPdf::3                  11851                       # What write queue length does an incoming req see
system.mem_ctrls2.wrQLenPdf::4                  11835                       # What write queue length does an incoming req see
system.mem_ctrls2.wrQLenPdf::5                    214                       # What write queue length does an incoming req see
system.mem_ctrls2.wrQLenPdf::6                    174                       # What write queue length does an incoming req see
system.mem_ctrls2.wrQLenPdf::7                    492                       # What write queue length does an incoming req see
system.mem_ctrls2.bytesPerActivate::samples        81514                       # Bytes accessed per row activation
system.mem_ctrls2.bytesPerActivate::mean   217.042864                       # Bytes accessed per row activation
system.mem_ctrls2.bytesPerActivate::gmean   138.891116                       # Bytes accessed per row activation
system.mem_ctrls2.bytesPerActivate::stdev   245.069074                       # Bytes accessed per row activation
system.mem_ctrls2.bytesPerActivate::0-127        38745     47.53%     47.53% # Bytes accessed per row activation
system.mem_ctrls2.bytesPerActivate::128-255        16768     20.57%     68.10% # Bytes accessed per row activation
system.mem_ctrls2.bytesPerActivate::256-383        14551     17.85%     85.95% # Bytes accessed per row activation
system.mem_ctrls2.bytesPerActivate::384-511         2618      3.21%     89.17% # Bytes accessed per row activation
system.mem_ctrls2.bytesPerActivate::512-639         1842      2.26%     91.42% # Bytes accessed per row activation
system.mem_ctrls2.bytesPerActivate::640-767         1280      1.57%     93.00% # Bytes accessed per row activation
system.mem_ctrls2.bytesPerActivate::768-895         1139      1.40%     94.39% # Bytes accessed per row activation
system.mem_ctrls2.bytesPerActivate::896-1023          875      1.07%     95.47% # Bytes accessed per row activation
system.mem_ctrls2.bytesPerActivate::1024-1151         3696      4.53%    100.00% # Bytes accessed per row activation
system.mem_ctrls2.bytesPerActivate::total        81514                       # Bytes accessed per row activation
system.mem_ctrls2.rdPerTurnAround::samples        11730                       # Reads before turning the bus around for writes
system.mem_ctrls2.rdPerTurnAround::mean     18.389003                       # Reads before turning the bus around for writes
system.mem_ctrls2.rdPerTurnAround::stdev    75.703218                       # Reads before turning the bus around for writes
system.mem_ctrls2.rdPerTurnAround::0-127        11360     96.85%     96.85% # Reads before turning the bus around for writes
system.mem_ctrls2.rdPerTurnAround::128-255          176      1.50%     98.35% # Reads before turning the bus around for writes
system.mem_ctrls2.rdPerTurnAround::256-383          102      0.87%     99.22% # Reads before turning the bus around for writes
system.mem_ctrls2.rdPerTurnAround::384-511           44      0.38%     99.59% # Reads before turning the bus around for writes
system.mem_ctrls2.rdPerTurnAround::512-639           24      0.20%     99.80% # Reads before turning the bus around for writes
system.mem_ctrls2.rdPerTurnAround::640-767           10      0.09%     99.88% # Reads before turning the bus around for writes
system.mem_ctrls2.rdPerTurnAround::768-895            4      0.03%     99.91% # Reads before turning the bus around for writes
system.mem_ctrls2.rdPerTurnAround::896-1023            1      0.01%     99.92% # Reads before turning the bus around for writes
system.mem_ctrls2.rdPerTurnAround::1152-1279            2      0.02%     99.94% # Reads before turning the bus around for writes
system.mem_ctrls2.rdPerTurnAround::1280-1407            2      0.02%     99.96% # Reads before turning the bus around for writes
system.mem_ctrls2.rdPerTurnAround::1536-1663            2      0.02%     99.97% # Reads before turning the bus around for writes
system.mem_ctrls2.rdPerTurnAround::1664-1791            1      0.01%     99.98% # Reads before turning the bus around for writes
system.mem_ctrls2.rdPerTurnAround::1920-2047            1      0.01%     99.99% # Reads before turning the bus around for writes
system.mem_ctrls2.rdPerTurnAround::2816-2943            1      0.01%    100.00% # Reads before turning the bus around for writes
system.mem_ctrls2.rdPerTurnAround::total        11730                       # Reads before turning the bus around for writes
system.mem_ctrls2.wrPerTurnAround::samples        11730                       # Writes before turning the bus around for reads
system.mem_ctrls2.wrPerTurnAround::mean      5.117477                       # Writes before turning the bus around for reads
system.mem_ctrls2.wrPerTurnAround::gmean     5.081195                       # Writes before turning the bus around for reads
system.mem_ctrls2.wrPerTurnAround::stdev     0.865994                       # Writes before turning the bus around for reads
system.mem_ctrls2.wrPerTurnAround::4-7          11610     98.98%     98.98% # Writes before turning the bus around for reads
system.mem_ctrls2.wrPerTurnAround::8-11            51      0.43%     99.41% # Writes before turning the bus around for reads
system.mem_ctrls2.wrPerTurnAround::12-15           15      0.13%     99.54% # Writes before turning the bus around for reads
system.mem_ctrls2.wrPerTurnAround::16-19           54      0.46%    100.00% # Writes before turning the bus around for reads
system.mem_ctrls2.wrPerTurnAround::total        11730                       # Writes before turning the bus around for reads
system.mem_ctrls2.totQLat                  2906884110                       # Total ticks spent queuing
system.mem_ctrls2.totMemAccLat             6964740360                       # Total ticks spent from burst creation until serviced by the DRAM
system.mem_ctrls2.totBusLat                1082095000                       # Total ticks spent in databus transfers
system.mem_ctrls2.avgQLat                    13431.74                       # Average queueing delay per DRAM burst
system.mem_ctrls2.avgBusLat                   5000.00                       # Average bus latency per DRAM burst
system.mem_ctrls2.avgMemAccLat               32181.74                       # Average memory access latency per DRAM burst
system.mem_ctrls2.avgRdBW                      231.83                       # Average DRAM read bandwidth in MiByte/s
system.mem_ctrls2.avgWrBW                       64.30                       # Average achieved write bandwidth in MiByte/s
system.mem_ctrls2.avgRdBWSys                   231.84                       # Average system read bandwidth in MiByte/s
system.mem_ctrls2.avgWrBWSys                    64.30                       # Average system write bandwidth in MiByte/s
system.mem_ctrls2.peakBW                     12800.00                       # Theoretical peak bandwidth in MiByte/s
system.mem_ctrls2.busUtil                        2.31                       # Data bus utilization in percentage
system.mem_ctrls2.busUtilRead                    1.81                       # Data bus utilization in percentage for reads
system.mem_ctrls2.busUtilWrite                   0.50                       # Data bus utilization in percentage for writes
system.mem_ctrls2.avgRdQLen                      1.10                       # Average read queue length when enqueuing
system.mem_ctrls2.avgWrQLen                      2.97                       # Average write queue length when enqueuing
system.mem_ctrls2.readRowHits                  156081                       # Number of row buffer hits during reads
system.mem_ctrls2.writeRowHits                  38845                       # Number of row buffer hits during writes
system.mem_ctrls2.readRowHitRate                72.12                       # Row buffer hit rate for reads
system.mem_ctrls2.writeRowHitRate               64.71                       # Row buffer hit rate for writes
system.mem_ctrls2.avgGap                    216108.13                       # Average gap between requests
system.mem_ctrls2.pageHitRate                   70.51                       # Row buffer hit rate, read and write combined
system.mem_ctrls2.memoryStateTime::IDLE   11129795000                       # Time in different power states
system.mem_ctrls2.memoryStateTime::REF     1994980000                       # Time in different power states
system.mem_ctrls2.memoryStateTime::PRE_PDN            0                       # Time in different power states
system.mem_ctrls2.memoryStateTime::ACT    46619576000                       # Time in different power states
system.mem_ctrls2.memoryStateTime::ACT_PDN            0                       # Time in different power states
system.mem_ctrls2.actEnergy::0              313135200                       # Energy for activate commands per rank (pJ)
system.mem_ctrls2.actEnergy::1              303103080                       # Energy for activate commands per rank (pJ)
system.mem_ctrls2.preEnergy::0              170857500                       # Energy for precharge commands per rank (pJ)
system.mem_ctrls2.preEnergy::1              165383625                       # Energy for precharge commands per rank (pJ)
system.mem_ctrls2.readEnergy::0             851674200                       # Energy for read commands per rank (pJ)
system.mem_ctrls2.readEnergy::1             836316000                       # Energy for read commands per rank (pJ)
system.mem_ctrls2.writeEnergy::0            197601120                       # Energy for write commands per rank (pJ)
system.mem_ctrls2.writeEnergy::1            191380320                       # Energy for write commands per rank (pJ)
system.mem_ctrls2.refreshEnergy::0         3902180880                       # Energy for refresh commands per rank (pJ)
system.mem_ctrls2.refreshEnergy::1         3902180880                       # Energy for refresh commands per rank (pJ)
system.mem_ctrls2.actBackEnergy::0        25281151290                       # Energy for active background per rank (pJ)
system.mem_ctrls2.actBackEnergy::1        24500564505                       # Energy for active background per rank (pJ)
system.mem_ctrls2.preBackEnergy::0        13670045250                       # Energy for precharge background per rank (pJ)
system.mem_ctrls2.preBackEnergy::1        14354770500                       # Energy for precharge background per rank (pJ)
system.mem_ctrls2.totalEnergy::0          44386645440                       # Total energy per rank (pJ)
system.mem_ctrls2.totalEnergy::1          44253698910                       # Total energy per rank (pJ)
system.mem_ctrls2.averagePower::0          742.945390                       # Core power per rank (mW)
system.mem_ctrls2.averagePower::1          740.720125                       # Core power per rank (mW)
system.mem_ctrls3.bytes_read::ruby.dir_cntrl3     13836864                       # Number of bytes read from this memory
system.mem_ctrls3.bytes_read::total          13836864                       # Number of bytes read from this memory
system.mem_ctrls3.bytes_written::ruby.dir_cntrl3      3838464                       # Number of bytes written to this memory
system.mem_ctrls3.bytes_written::total        3838464                       # Number of bytes written to this memory
system.mem_ctrls3.num_reads::ruby.dir_cntrl3       216201                       # Number of read requests responded to by this memory
system.mem_ctrls3.num_reads::total             216201                       # Number of read requests responded to by this memory
system.mem_ctrls3.num_writes::ruby.dir_cntrl3        59976                       # Number of write requests responded to by this memory
system.mem_ctrls3.num_writes::total             59976                       # Number of write requests responded to by this memory
system.mem_ctrls3.bw_read::ruby.dir_cntrl3    231593310                       # Total read bandwidth from this memory (bytes/s)
system.mem_ctrls3.bw_read::total            231593310                       # Total read bandwidth from this memory (bytes/s)
system.mem_ctrls3.bw_write::ruby.dir_cntrl3     64245958                       # Write bandwidth from this memory (bytes/s)
system.mem_ctrls3.bw_write::total            64245958                       # Write bandwidth from this memory (bytes/s)
system.mem_ctrls3.bw_total::ruby.dir_cntrl3    295839268                       # Total bandwidth to/from this memory (bytes/s)
system.mem_ctrls3.bw_total::total           295839268                       # Total bandwidth to/from this memory (bytes/s)
system.mem_ctrls3.readReqs                     216202                       # Number of read requests accepted
system.mem_ctrls3.writeReqs                     59976                       # Number of write requests accepted
system.mem_ctrls3.readBursts                   216202                       # Number of DRAM read bursts, including those serviced by the write queue
system.mem_ctrls3.writeBursts                   59976                       # Number of DRAM write bursts, including those merged in the write queue
system.mem_ctrls3.bytesReadDRAM              13836160                       # Total number of bytes read from DRAM
system.mem_ctrls3.bytesReadWrQ                    768                       # Total number of bytes read from write queue
system.mem_ctrls3.bytesWritten                3838208                       # Total number of bytes written to DRAM
system.mem_ctrls3.bytesReadSys               13836928                       # Total read bytes from the system interface side
system.mem_ctrls3.bytesWrittenSys             3838464                       # Total written bytes from the system interface side
system.mem_ctrls3.servicedByWrQ                    12                       # Number of DRAM read bursts serviced by the write queue
system.mem_ctrls3.mergedWrBursts                    0                       # Number of DRAM write bursts merged with an existing one
system.mem_ctrls3.neitherReadNorWriteReqs            0                       # Number of requests that are neither read nor write
system.mem_ctrls3.perBankRdBursts::0            13270                       # Per bank write bursts
system.mem_ctrls3.perBankRdBursts::1            13823                       # Per bank write bursts
system.mem_ctrls3.perBankRdBursts::2            13450                       # Per bank write bursts
system.mem_ctrls3.perBankRdBursts::3            13898                       # Per bank write bursts
system.mem_ctrls3.perBankRdBursts::4            13490                       # Per bank write bursts
system.mem_ctrls3.perBankRdBursts::5            14081                       # Per bank write bursts
system.mem_ctrls3.perBankRdBursts::6            13512                       # Per bank write bursts
system.mem_ctrls3.perBankRdBursts::7            13491                       # Per bank write bursts
system.mem_ctrls3.perBankRdBursts::8            13398                       # Per bank write bursts
system.mem_ctrls3.perBankRdBursts::9            13703                       # Per bank write bursts
system.mem_ctrls3.perBankRdBursts::10           13441                       # Per bank write bursts
system.mem_ctrls3.perBankRdBursts::11           13659                       # Per bank write bursts
system.mem_ctrls3.perBankRdBursts::12           13200                       # Per bank write bursts
system.mem_ctrls3.perBankRdBursts::13           13061                       # Per bank write bursts
system.mem_ctrls3.perBankRdBursts::14           13312                       # Per bank write bursts
system.mem_ctrls3.perBankRdBursts::15           13401                       # Per bank write bursts
system.mem_ctrls3.perBankWrBursts::0             3684                       # Per bank write bursts
system.mem_ctrls3.perBankWrBursts::1             3769                       # Per bank write bursts
system.mem_ctrls3.perBankWrBursts::2             3752                       # Per bank write bursts
system.mem_ctrls3.perBankWrBursts::3             3975                       # Per bank write bursts
system.mem_ctrls3.perBankWrBursts::4             3768                       # Per bank write bursts
system.mem_ctrls3.perBankWrBursts::5             3909                       # Per bank write bursts
system.mem_ctrls3.perBankWrBursts::6             3808                       # Per bank write bursts
system.mem_ctrls3.perBankWrBursts::7             3773                       # Per bank write bursts
system.mem_ctrls3.perBankWrBursts::8             3662                       # Per bank write bursts
system.mem_ctrls3.perBankWrBursts::9             3908                       # Per bank write bursts
system.mem_ctrls3.perBankWrBursts::10            3671                       # Per bank write bursts
system.mem_ctrls3.perBankWrBursts::11            3622                       # Per bank write bursts
system.mem_ctrls3.perBankWrBursts::12            3573                       # Per bank write bursts
system.mem_ctrls3.perBankWrBursts::13            3595                       # Per bank write bursts
system.mem_ctrls3.perBankWrBursts::14            3795                       # Per bank write bursts
system.mem_ctrls3.perBankWrBursts::15            3708                       # Per bank write bursts
system.mem_ctrls3.numRdRetry                      547                       # Number of times read queue was full causing retry
system.mem_ctrls3.numWrRetry                      275                       # Number of times write queue was full causing retry
system.mem_ctrls3.totGap                  59745643500                       # Total gap between requests
system.mem_ctrls3.readPktSize::0                    0                       # Read request sizes (log2)
system.mem_ctrls3.readPktSize::1                    0                       # Read request sizes (log2)
system.mem_ctrls3.readPktSize::2                    0                       # Read request sizes (log2)
system.mem_ctrls3.readPktSize::3                    0                       # Read request sizes (log2)
system.mem_ctrls3.readPktSize::4                    0                       # Read request sizes (log2)
system.mem_ctrls3.readPktSize::5                    0                       # Read request sizes (log2)
system.mem_ctrls3.readPktSize::6               216202                       # Read request sizes (log2)
system.mem_ctrls3.writePktSize::0                   0                       # Write request sizes (log2)
[...]
system.ruby.L2Cache_Controller.IS.Mem_Data::total        13542                      
system.ruby.L2Cache_Controller.IM.Mem_Data |        6009      3.16%      3.16% |        5933      3.12%      6.28% |        5941      3.12%      9.40% |        5950      3.13%     12.53% |        5947      3.13%     15.66% |        5943      3.12%     18.78% |        5940      3.12%     21.90% |        5927      3.12%     25.02% |        5949      3.13%     28.15% |        5944      3.13%     31.27% |        5929      3.12%     34.39% |        5949      3.13%     37.52% |        5939      3.12%     40.64% |        5934      3.12%     43.76% |        5932      3.12%     46.88% |        5932      3.12%     50.00% |        5946      3.13%     53.13% |        5946      3.13%     56.25% |        5947      3.13%     59.38% |        5937      3.12%     62.50% |        5943      3.12%     65.62% |        5952      3.13%     68.75% |        5932      3.12%     71.87% |        5940      3.12%     75.00% |        5947      3.13%     78.12% |        5943      3.12%     81.25% |        5953      3.13%     84.38% |        5943      3.12%     87.50% |        5941      3.12%     90.63% |        5946      3.13%     93.75% |        5954      3.13%     96.88% |        5931      3.12%    100.00%
system.ruby.L2Cache_Controller.IM.Mem_Data::total       190199                      
system.ruby.L2Cache_Controller.SS_MB.Exclusive_Unblock |         213     81.30%     81.30% |           6      2.29%     83.59% |           3      1.15%     84.73% |           6      2.29%     87.02% |           0      0.00%     87.02% |           1      0.38%     87.40% |           1      0.38%     87.79% |           0      0.00%     87.79% |           0      0.00%     87.79% |           1      0.38%     88.17% |           0      0.00%     88.17% |           0      0.00%     88.17% |           5      1.91%     90.08% |           0      0.00%     90.08% |           2      0.76%     90.84% |           1      0.38%     91.22% |           0      0.00%     91.22% |           0      0.00%     91.22% |          10      3.82%     95.04% |           2      0.76%     95.80% |           0      0.00%     95.80% |           0      0.00%     95.80% |           0      0.00%     95.80% |           0      0.00%     95.80% |           1      0.38%     96.18% |           0      0.00%     96.18% |           2      0.76%     96.95% |           1      0.38%     97.33% |           4      1.53%     98.85% |           1      0.38%     99.24% |           1      0.38%     99.62% |           1      0.38%    100.00%
system.ruby.L2Cache_Controller.SS_MB.Exclusive_Unblock::total          262                      
system.ruby.L2Cache_Controller.MT_MB.L1_GETS |           0      0.00%      0.00% |           0      0.00%      0.00% |           0      0.00%      0.00% |           0      0.00%      0.00% |           0      0.00%      0.00% |           0      0.00%      0.00% |           0      0.00%      0.00% |           0      0.00%      0.00% |           0      0.00%      0.00% |           0      0.00%      0.00% |           0      0.00%      0.00% |           0      0.00%      0.00% |           0      0.00%      0.00% |           0      0.00%      0.00% |           0      0.00%      0.00% |           0      0.00%      0.00% |           0      0.00%      0.00% |           5     50.00%     50.00% |           5     50.00%    100.00% |           0      0.00%    100.00% |           0      0.00%    100.00% |           0      0.00%    100.00% |           0      0.00%    100.00% |           0      0.00%    100.00% |           0      0.00%    100.00% |           0      0.00%    100.00% |           0      0.00%    100.00% |           0      0.00%    100.00% |           0      0.00%    100.00% |           0      0.00%    100.00% |           0      0.00%    100.00% |           0      0.00%    100.00%
system.ruby.L2Cache_Controller.MT_MB.L1_GETS::total           10                      
system.ruby.L2Cache_Controller.MT_MB.Exclusive_Unblock |       77647      7.09%      7.09% |       33388      3.05%     10.14% |       32686      2.99%     13.13% |       32854      3.00%     16.13% |       33106      3.02%     19.15% |       32033      2.93%     22.07% |       31957      2.92%     24.99% |       31675      2.89%     27.89% |       33954      3.10%     30.99% |       32355      2.95%     33.94% |       34303      3.13%     37.07% |       33124      3.03%     40.10% |       32694      2.99%     43.09% |       31745      2.90%     45.98% |       31778      2.90%     48.89% |       31669      2.89%     51.78% |       34276      3.13%     54.91% |       32115      2.93%     57.84% |       32966      3.01%     60.85% |       32541      2.97%     63.82% |       33033      3.02%     66.84% |       32475      2.97%     69.81% |       33015      3.02%     72.82% |       32009      2.92%     75.75% |       33647      3.07%     78.82% |       32343      2.95%     81.77% |       32844      3.00%     84.77% |       31818      2.91%     87.68% |       33166      3.03%     90.71% |       31907      2.91%     93.62% |       34282      3.13%     96.75% |       35573      3.25%    100.00%
system.ruby.L2Cache_Controller.MT_MB.Exclusive_Unblock::total      1094978                      
system.ruby.L2Cache_Controller.MT_IIB.L1_GETS |           0      0.00%      0.00% |           5     26.32%     26.32% |           1      5.26%     31.58% |           0      0.00%     31.58% |           0      0.00%     31.58% |           0      0.00%     31.58% |           0      0.00%     31.58% |           0      0.00%     31.58% |           0      0.00%     31.58% |           0      0.00%     31.58% |           0      0.00%     31.58% |           0      0.00%     31.58% |           0      0.00%     31.58% |           0      0.00%     31.58% |           0      0.00%     31.58% |           0      0.00%     31.58% |           0      0.00%     31.58% |           5     26.32%     57.89% |           4     21.05%     78.95% |           4     21.05%    100.00% |           0      0.00%    100.00% |           0      0.00%    100.00% |           0      0.00%    100.00% |           0      0.00%    100.00% |           0      0.00%    100.00% |           0      0.00%    100.00% |           0      0.00%    100.00% |           0      0.00%    100.00% |           0      0.00%    100.00% |           0      0.00%    100.00% |           0      0.00%    100.00% |           0      0.00%    100.00%
system.ruby.L2Cache_Controller.MT_IIB.L1_GETS::total           19                      
system.ruby.L2Cache_Controller.MT_IIB.WB_Data |         177      7.65%      7.65% |          70      3.02%     10.67% |          69      2.98%     13.65% |          63      2.72%     16.37% |          69      2.98%     19.35% |          69      2.98%     22.33% |          69      2.98%     25.31% |          69      2.98%     28.29% |          69      2.98%     31.27% |          69      2.98%     34.25% |          68      2.94%     37.19% |          66      2.85%     40.04% |          73      3.15%     43.20% |          69      2.98%     46.18% |          69      2.98%     49.16% |          69      2.98%     52.14% |          69      2.98%     55.12% |          69      2.98%     58.10% |          70      3.02%     61.12% |          70      3.02%     64.15% |          69      2.98%     67.13% |          69      2.98%     70.11% |          71      3.07%     73.17% |          69      2.98%     76.16% |          69      2.98%     79.14% |          69      2.98%     82.12% |          69      2.98%     85.10% |          69      2.98%     88.08% |          69      2.98%     91.06% |          69      2.98%     94.04% |          69      2.98%     97.02% |          69      2.98%    100.00%
system.ruby.L2Cache_Controller.MT_IIB.WB_Data::total         2315                      
system.ruby.L2Cache_Controller.MT_IIB.WB_Data_clean |         603     96.33%     96.33% |           4      0.64%     96.96% |           3      0.48%     97.44% |           3      0.48%     97.92% |           0      0.00%     97.92% |           0      0.00%     97.92% |           0      0.00%     97.92% |           0      0.00%     97.92% |           0      0.00%     97.92% |           0      0.00%     97.92% |           0      0.00%     97.92% |           0      0.00%     97.92% |           0      0.00%     97.92% |           0      0.00%     97.92% |           1      0.16%     98.08% |           0      0.00%     98.08% |           1      0.16%     98.24% |           4      0.64%     98.88% |           4      0.64%     99.52% |           3      0.48%    100.00% |           0      0.00%    100.00% |           0      0.00%    100.00% |           0      0.00%    100.00% |           0      0.00%    100.00% |           0      0.00%    100.00% |           0      0.00%    100.00% |           0      0.00%    100.00% |           0      0.00%    100.00% |           0      0.00%    100.00% |           0      0.00%    100.00% |           0      0.00%    100.00% |           0      0.00%    100.00%
system.ruby.L2Cache_Controller.MT_IIB.WB_Data_clean::total          626                      
system.ruby.L2Cache_Controller.MT_IIB.Unblock |           0      0.00%      0.00% |           1      7.14%      7.14% |           0      0.00%      7.14% |           6     42.86%     50.00% |           0      0.00%     50.00% |           0      0.00%     50.00% |           0      0.00%     50.00% |           0      0.00%     50.00% |           0      0.00%     50.00% |           0      0.00%     50.00% |           1      7.14%     57.14% |           3     21.43%     78.57% |           0      0.00%     78.57% |           0      0.00%     78.57% |           0      0.00%     78.57% |           0      0.00%     78.57% |           0      0.00%     78.57% |           0      0.00%     78.57% |           0      0.00%     78.57% |           0      0.00%     78.57% |           0      0.00%     78.57% |           0      0.00%     78.57% |           0      0.00%     78.57% |           0      0.00%     78.57% |           0      0.00%     78.57% |           1      7.14%     85.71% |           0      0.00%     85.71% |           0      0.00%     85.71% |           2     14.29%    100.00% |           0      0.00%    100.00% |           0      0.00%    100.00% |           0      0.00%    100.00%
system.ruby.L2Cache_Controller.MT_IIB.Unblock::total           14                      
system.ruby.L2Cache_Controller.MT_IB.WB_Data |           0      0.00%      0.00% |           1      7.14%      7.14% |           0      0.00%      7.14% |           6     42.86%     50.00% |           0      0.00%     50.00% |           0      0.00%     50.00% |           0      0.00%     50.00% |           0      0.00%     50.00% |           0      0.00%     50.00% |           0      0.00%     50.00% |           1      7.14%     57.14% |           3     21.43%     78.57% |           0      0.00%     78.57% |           0      0.00%     78.57% |           0      0.00%     78.57% |           0      0.00%     78.57% |           0      0.00%     78.57% |           0      0.00%     78.57% |           0      0.00%     78.57% |           0      0.00%     78.57% |           0      0.00%     78.57% |           0      0.00%     78.57% |           0      0.00%     78.57% |           0      0.00%     78.57% |           0      0.00%     78.57% |           1      7.14%     85.71% |           0      0.00%     85.71% |           0      0.00%     85.71% |           2     14.29%    100.00% |           0      0.00%    100.00% |           0      0.00%    100.00% |           0      0.00%    100.00%
system.ruby.L2Cache_Controller.MT_IB.WB_Data::total           14                      
system.ruby.L2Cache_Controller.MT_SB.L1_GETS |           1     50.00%     50.00% |           1     50.00%    100.00% |           0      0.00%    100.00% |           0      0.00%    100.00% |           0      0.00%    100.00% |           0      0.00%    100.00% |           0      0.00%    100.00% |           0      0.00%    100.00% |           0      0.00%    100.00% |           0      0.00%    100.00% |           0      0.00%    100.00% |           0      0.00%    100.00% |           0      0.00%    100.00% |           0      0.00%    100.00% |           0      0.00%    100.00% |           0      0.00%    100.00% |           0      0.00%    100.00% |           0      0.00%    100.00% |           0      0.00%    100.00% |           0      0.00%    100.00% |           0      0.00%    100.00% |           0      0.00%    100.00% |           0      0.00%    100.00% |           0      0.00%    100.00% |           0      0.00%    100.00% |           0      0.00%    100.00% |           0      0.00%    100.00% |           0      0.00%    100.00% |           0      0.00%    100.00% |           0      0.00%    100.00% |           0      0.00%    100.00% |           0      0.00%    100.00%
system.ruby.L2Cache_Controller.MT_SB.L1_GETS::total            2                      
system.ruby.L2Cache_Controller.MT_SB.Unblock |         780     26.52%     26.52% |          74      2.52%     29.04% |          72      2.45%     31.49% |          66      2.24%     33.73% |          69      2.35%     36.08% |          69      2.35%     38.42% |          69      2.35%     40.77% |          69      2.35%     43.11% |          69      2.35%     45.46% |          69      2.35%     47.81% |          68      2.31%     50.12% |          66      2.24%     52.36% |          73      2.48%     54.85% |          69      2.35%     57.19% |          70      2.38%     59.57% |          69      2.35%     61.92% |          70      2.38%     64.30% |          73      2.48%     66.78% |          74      2.52%     69.30% |          73      2.48%     71.78% |          69      2.35%     74.12% |          69      2.35%     76.47% |          71      2.41%     78.88% |          69      2.35%     81.23% |          69      2.35%     83.58% |          69      2.35%     85.92% |          69      2.35%     88.27% |          69      2.35%     90.62% |          69      2.35%     92.96% |          69      2.35%     95.31% |          69      2.35%     97.65% |          69      2.35%    100.00%
system.ruby.L2Cache_Controller.MT_SB.Unblock::total         2941                      
system.ruby.SimicsNetworkPortInterface_Controller.MessageSend |       76172      4.27%      4.27% |      891746     50.00%     54.27% |      108144      6.06%     60.33% |      102810      5.76%     66.10% |      101191      5.67%     71.77% |      102769      5.76%     77.54% |      101576      5.70%     83.23% |      103420      5.80%     89.03% |       97175      5.45%     94.48% |       98489      5.52%    100.00% |           0      0.00%    100.00% |           0      0.00%    100.00% |           0      0.00%    100.00% |           0      0.00%    100.00% |           0      0.00%    100.00% |           0      0.00%    100.00% |           0      0.00%    100.00% |           0      0.00%    100.00% |           0      0.00%    100.00% |           0      0.00%    100.00% |           0      0.00%    100.00% |           0      0.00%    100.00% |           0      0.00%    100.00% |           0      0.00%    100.00% |           0      0.00%    100.00% |           0      0.00%    100.00% |           0      0.00%    100.00% |           0      0.00%    100.00% |           0      0.00%    100.00% |           0      0.00%    100.00% |           0      0.00%    100.00% |           0      0.00%    100.00%
system.ruby.SimicsNetworkPortInterface_Controller.MessageSend::total      1783492                      
system.ruby.SimicsNetworkPortInterface_Controller.MessageRecv |       76172      4.27%      4.27% |      891746     50.00%     54.27% |      108144      6.06%     60.33% |      102810      5.76%     66.10% |      101191      5.67%     71.77% |      102769      5.76%     77.54% |      101576      5.70%     83.23% |      103420      5.80%     89.03% |       97175      5.45%     94.48% |       98489      5.52%    100.00% |           0      0.00%    100.00% |           0      0.00%    100.00% |           0      0.00%    100.00% |           0      0.00%    100.00% |           0      0.00%    100.00% |           0      0.00%    100.00% |           0      0.00%    100.00% |           0      0.00%    100.00% |           0      0.00%    100.00% |           0      0.00%    100.00% |           0      0.00%    100.00% |           0      0.00%    100.00% |           0      0.00%    100.00% |           0      0.00%    100.00% |           0      0.00%    100.00% |           0      0.00%    100.00% |           0      0.00%    100.00% |           0      0.00%    100.00% |           0      0.00%    100.00% |           0      0.00%    100.00% |           0      0.00%    100.00% |           0      0.00%    100.00%
system.ruby.SimicsNetworkPortInterface_Controller.MessageRecv::total      1783492                      
system.ruby.SimicsNetworkPortInterface_Controller.A.MessageSend |       76172      4.27%      4.27% |      891746     50.00%     54.27% |      108144      6.06%     60.33% |      102810      5.76%     66.10% |      101191      5.67%     71.77% |      102769      5.76%     77.54% |      101576      5.70%     83.23% |      103420      5.80%     89.03% |       97175      5.45%     94.48% |       98489      5.52%    100.00% |           0      0.00%    100.00% |           0      0.00%    100.00% |           0      0.00%    100.00% |           0      0.00%    100.00% |           0      0.00%    100.00% |           0      0.00%    100.00% |           0      0.00%    100.00% |           0      0.00%    100.00% |           0      0.00%    100.00% |           0      0.00%    100.00% |           0      0.00%    100.00% |           0      0.00%    100.00% |           0      0.00%    100.00% |           0      0.00%    100.00% |           0      0.00%    100.00% |           0      0.00%    100.00% |           0      0.00%    100.00% |           0      0.00%    100.00% |           0      0.00%    100.00% |           0      0.00%    100.00% |           0      0.00%    100.00% |           0      0.00%    100.00%
system.ruby.SimicsNetworkPortInterface_Controller.A.MessageSend::total      1783492                      
system.ruby.SimicsNetworkPortInterface_Controller.A.MessageRecv |       76172      4.27%      4.27% |      891746     50.00%     54.27% |      108144      6.06%     60.33% |      102810      5.76%     66.10% |      101191      5.67%     71.77% |      102769      5.76%     77.54% |      101576      5.70%     83.23% |      103420      5.80%     89.03% |       97175      5.45%     94.48% |       98489      5.52%    100.00% |           0      0.00%    100.00% |           0      0.00%    100.00% |           0      0.00%    100.00% |           0      0.00%    100.00% |           0      0.00%    100.00% |           0      0.00%    100.00% |           0      0.00%    100.00% |           0      0.00%    100.00% |           0      0.00%    100.00% |           0      0.00%    100.00% |           0      0.00%    100.00% |           0      0.00%    100.00% |           0      0.00%    100.00% |           0      0.00%    100.00% |           0      0.00%    100.00% |           0      0.00%    100.00% |           0      0.00%    100.00% |           0      0.00%    100.00% |           0      0.00%    100.00% |           0      0.00%    100.00% |           0      0.00%    100.00% |           0      0.00%    100.00%
system.ruby.SimicsNetworkPortInterface_Controller.A.MessageRecv::total      1783492                      
system.switch_cpus.kern.inst.arm                    0                       # number of arm instructions executed
system.switch_cpus.kern.inst.quiesce                0                       # number of quiesce instructions executed

---------- End Simulation Statistics   ----------
