
---------- Begin Simulation Statistics ----------
sim_seconds                                  0.056843                       # Number of seconds simulated
sim_ticks                                 56843196000                       # Number of ticks simulated
final_tick                               5233011274500                       # Number of ticks from beginning of simulation (restored from checkpoints and never reset)
sim_freq                                 1000000000000                       # Frequency of simulated ticks
host_inst_rate                                  28533                       # Simulator instruction rate (inst/s)
host_op_rate                                    50594                       # Simulator op (including micro ops) rate (op/s)
host_tick_rate                               71577921                       # Simulator tick rate (ticks/s)
host_mem_usage                                3686372                       # Number of bytes of host memory used
host_seconds                                   794.14                       # Real time elapsed on the host
sim_insts                                    22659233                       # Number of instructions simulated
sim_ops                                      40178792                       # Number of ops (including micro ops) simulated
system.voltage_domain.voltage                       1                       # Voltage in Volts
system.clk_domain.clock                           500                       # Clock period in ticks
system.mem_ctrls0.bytes_read::ruby.dir_cntrl0     12581632                       # Number of bytes read from this memory
system.mem_ctrls0.bytes_read::total          12581632                       # Number of bytes read from this memory
system.mem_ctrls0.bytes_written::ruby.dir_cntrl0      8007104                       # Number of bytes written to this memory
system.mem_ctrls0.bytes_written::total        8007104                       # Number of bytes written to this memory
system.mem_ctrls0.num_reads::ruby.dir_cntrl0       196588                       # Number of read requests responded to by this memory
system.mem_ctrls0.num_reads::total             196588                       # Number of read requests responded to by this memory
system.mem_ctrls0.num_writes::ruby.dir_cntrl0       125111                       # Number of write requests responded to by this memory
system.mem_ctrls0.num_writes::total            125111                       # Number of write requests responded to by this memory
system.mem_ctrls0.bw_read::ruby.dir_cntrl0    221339279                       # Total read bandwidth from this memory (bytes/s)
system.mem_ctrls0.bw_read::total            221339279                       # Total read bandwidth from this memory (bytes/s)
system.mem_ctrls0.bw_write::ruby.dir_cntrl0    140863016                       # Write bandwidth from this memory (bytes/s)
system.mem_ctrls0.bw_write::total           140863016                       # Write bandwidth from this memory (bytes/s)
system.mem_ctrls0.bw_total::ruby.dir_cntrl0    362202294                       # Total bandwidth to/from this memory (bytes/s)
system.mem_ctrls0.bw_total::total           362202294                       # Total bandwidth to/from this memory (bytes/s)
system.mem_ctrls0.readReqs                     196588                       # Number of read requests accepted
system.mem_ctrls0.writeReqs                    125111                       # Number of write requests accepted
system.mem_ctrls0.readBursts                   196588                       # Number of DRAM read bursts, including those serviced by the write queue
system.mem_ctrls0.writeBursts                  125111                       # Number of DRAM write bursts, including those merged in the write queue
system.mem_ctrls0.bytesReadDRAM              12580288                       # Total number of bytes read from DRAM
system.mem_ctrls0.bytesReadWrQ                   1344                       # Total number of bytes read from write queue
system.mem_ctrls0.bytesWritten                8006848                       # Total number of bytes written to DRAM
system.mem_ctrls0.bytesReadSys               12581632                       # Total read bytes from the system interface side
system.mem_ctrls0.bytesWrittenSys             8007104                       # Total written bytes from the system interface side
system.mem_ctrls0.servicedByWrQ                    21                       # Number of DRAM read bursts serviced by the write queue
system.mem_ctrls0.mergedWrBursts                    0                       # Number of DRAM write bursts merged with an existing one
system.mem_ctrls0.neitherReadNorWriteReqs            0                       # Number of requests that are neither read nor write
system.mem_ctrls0.perBankRdBursts::0            12041                       # Per bank write bursts
system.mem_ctrls0.perBankRdBursts::1            12247                       # Per bank write bursts
system.mem_ctrls0.perBankRdBursts::2            11937                       # Per bank write bursts
system.mem_ctrls0.perBankRdBursts::3            12402                       # Per bank write bursts
system.mem_ctrls0.perBankRdBursts::4            12198                       # Per bank write bursts
system.mem_ctrls0.perBankRdBursts::5            12295                       # Per bank write bursts
system.mem_ctrls0.perBankRdBursts::6            12526                       # Per bank write bursts
system.mem_ctrls0.perBankRdBursts::7            12577                       # Per bank write bursts
system.mem_ctrls0.perBankRdBursts::8            12440                       # Per bank write bursts
system.mem_ctrls0.perBankRdBursts::9            12705                       # Per bank write bursts
system.mem_ctrls0.perBankRdBursts::10           12356                       # Per bank write bursts
system.mem_ctrls0.perBankRdBursts::11           12662                       # Per bank write bursts
system.mem_ctrls0.perBankRdBursts::12           12199                       # Per bank write bursts
system.mem_ctrls0.perBankRdBursts::13           12001                       # Per bank write bursts
system.mem_ctrls0.perBankRdBursts::14           12214                       # Per bank write bursts
system.mem_ctrls0.perBankRdBursts::15           11767                       # Per bank write bursts
system.mem_ctrls0.perBankWrBursts::0             7751                       # Per bank write bursts
system.mem_ctrls0.perBankWrBursts::1             7609                       # Per bank write bursts
system.mem_ctrls0.perBankWrBursts::2             7747                       # Per bank write bursts
system.mem_ctrls0.perBankWrBursts::3             7845                       # Per bank write bursts
system.mem_ctrls0.perBankWrBursts::4             7740                       # Per bank write bursts
system.mem_ctrls0.perBankWrBursts::5             7867                       # Per bank write bursts
system.mem_ctrls0.perBankWrBursts::6             7910                       # Per bank write bursts
system.mem_ctrls0.perBankWrBursts::7             7984                       # Per bank write bursts
system.mem_ctrls0.perBankWrBursts::8             7883                       # Per bank write bursts
system.mem_ctrls0.perBankWrBursts::9             8060                       # Per bank write bursts
system.mem_ctrls0.perBankWrBursts::10            7866                       # Per bank write bursts
system.mem_ctrls0.perBankWrBursts::11            7880                       # Per bank write bursts
system.mem_ctrls0.perBankWrBursts::12            7745                       # Per bank write bursts
system.mem_ctrls0.perBankWrBursts::13            7725                       # Per bank write bursts
system.mem_ctrls0.perBankWrBursts::14            7892                       # Per bank write bursts
system.mem_ctrls0.perBankWrBursts::15            7603                       # Per bank write bursts
system.mem_ctrls0.numRdRetry                    97978                       # Number of times read queue was full causing retry
system.mem_ctrls0.numWrRetry                     7973                       # Number of times write queue was full causing retry
system.mem_ctrls0.totGap                  56842690000                       # Total gap between requests
system.mem_ctrls0.readPktSize::0                    0                       # Read request sizes (log2)
system.mem_ctrls0.readPktSize::1                    0                       # Read request sizes (log2)
system.mem_ctrls0.readPktSize::2                    0                       # Read request sizes (log2)
system.mem_ctrls0.readPktSize::3                    0                       # Read request sizes (log2)
system.mem_ctrls0.readPktSize::4                    0                       # Read request sizes (log2)
system.mem_ctrls0.readPktSize::5                    0                       # Read request sizes (log2)
system.mem_ctrls0.readPktSize::6               196588                       # Read request sizes (log2)
system.mem_ctrls0.writePktSize::0                   0                       # Write request sizes (log2)
system.mem_ctrls0.writePktSize::1                   0                       # Write request sizes (log2)
system.mem_ctrls0.writePktSize::2                   0                       # Write request sizes (log2)
system.mem_ctrls0.writePktSize::3                   0                       # Write request sizes (log2)
system.mem_ctrls0.writePktSize::4                   0                       # Write request sizes (log2)
system.mem_ctrls0.writePktSize::5                   0                       # Write request sizes (log2)
system.mem_ctrls0.writePktSize::6              125111                       # Write request sizes (log2)
system.mem_ctrls0.rdQLenPdf::0                  69827                       # What read queue length does an incoming req see
system.mem_ctrls0.rdQLenPdf::1                   3726                       # What read queue length does an incoming req see
system.mem_ctrls0.rdQLenPdf::2                   2097                       # What read queue length does an incoming req see
system.mem_ctrls0.rdQLenPdf::3                   1211                       # What read queue length does an incoming req see
system.mem_ctrls0.rdQLenPdf::4                   1080                       # What read queue length does an incoming req see
system.mem_ctrls0.rdQLenPdf::5                    989                       # What read queue length does an incoming req see
system.mem_ctrls0.rdQLenPdf::6                    943                       # What read queue length does an incoming req see
system.mem_ctrls0.rdQLenPdf::7                    855                       # What read queue length does an incoming req see
system.mem_ctrls0.rdQLenPdf::8                    843                       # What read queue length does an incoming req see
system.mem_ctrls0.rdQLenPdf::9                    809                       # What read queue length does an incoming req see
system.mem_ctrls0.rdQLenPdf::10                   729                       # What read queue length does an incoming req see
system.mem_ctrls0.rdQLenPdf::11                   710                       # What read queue length does an incoming req see
system.mem_ctrls0.rdQLenPdf::12                   666                       # What read queue length does an incoming req see
system.mem_ctrls0.rdQLenPdf::13                   683                       # What read queue length does an incoming req see
system.mem_ctrls0.rdQLenPdf::14                   649                       # What read queue length does an incoming req see
system.mem_ctrls0.rdQLenPdf::15                   603                       # What read queue length does an incoming req see
system.mem_ctrls0.rdQLenPdf::16                   568                       # What read queue length does an incoming req see
system.mem_ctrls0.rdQLenPdf::17                   536                       # What read queue length does an incoming req see
system.mem_ctrls0.rdQLenPdf::18                   535                       # What read queue length does an incoming req see
system.mem_ctrls0.rdQLenPdf::19                   536                       # What read queue length does an incoming req see
system.mem_ctrls0.rdQLenPdf::20                   507                       # What read queue length does an incoming req see
system.mem_ctrls0.rdQLenPdf::21                   545                       # What read queue length does an incoming req see
system.mem_ctrls0.rdQLenPdf::22                   519                       # What read queue length does an incoming req see
system.mem_ctrls0.rdQLenPdf::23                   565                       # What read queue length does an incoming req see
system.mem_ctrls0.rdQLenPdf::24                   577                       # What read queue length does an incoming req see
system.mem_ctrls0.rdQLenPdf::25                   614                       # What read queue length does an incoming req see
system.mem_ctrls0.rdQLenPdf::26                   659                       # What read queue length does an incoming req see
system.mem_ctrls0.rdQLenPdf::27                   661                       # What read queue length does an incoming req see
system.mem_ctrls0.rdQLenPdf::28                   715                       # What read queue length does an incoming req see
system.mem_ctrls0.rdQLenPdf::29                   845                       # What read queue length does an incoming req see
system.mem_ctrls0.rdQLenPdf::30                  1308                       # What read queue length does an incoming req see
system.mem_ctrls0.rdQLenPdf::31                100457                       # What read queue length does an incoming req see
system.mem_ctrls0.wrQLenPdf::0                  16924                       # What write queue length does an incoming req see
system.mem_ctrls0.wrQLenPdf::1                  17881                       # What write queue length does an incoming req see
system.mem_ctrls0.wrQLenPdf::2                  18457                       # What write queue length does an incoming req see
system.mem_ctrls0.wrQLenPdf::3                  18895                       # What write queue length does an incoming req see
system.mem_ctrls0.wrQLenPdf::4                  19527                       # What write queue length does an incoming req see
system.mem_ctrls0.wrQLenPdf::5                   8028                       # What write queue length does an incoming req see
system.mem_ctrls0.wrQLenPdf::6                   9692                       # What write queue length does an incoming req see
system.mem_ctrls0.wrQLenPdf::7                  15707                       # What write queue length does an incoming req see
system.mem_ctrls0.bytesPerActivate::samples       106555                       # Bytes accessed per row activation
system.mem_ctrls0.bytesPerActivate::mean   193.195852                       # Bytes accessed per row activation
system.mem_ctrls0.bytesPerActivate::gmean   143.529444                       # Bytes accessed per row activation
system.mem_ctrls0.bytesPerActivate::stdev   167.564249                       # Bytes accessed per row activation
system.mem_ctrls0.bytesPerActivate::0-127        40319     37.84%     37.84% # Bytes accessed per row activation
system.mem_ctrls0.bytesPerActivate::128-255        31669     29.72%     67.56% # Bytes accessed per row activation
system.mem_ctrls0.bytesPerActivate::256-383        23230     21.80%     89.36% # Bytes accessed per row activation
system.mem_ctrls0.bytesPerActivate::384-511         4932      4.63%     93.99% # Bytes accessed per row activation
system.mem_ctrls0.bytesPerActivate::512-639         3324      3.12%     97.11% # Bytes accessed per row activation
system.mem_ctrls0.bytesPerActivate::640-767         1048      0.98%     98.09% # Bytes accessed per row activation
system.mem_ctrls0.bytesPerActivate::768-895          628      0.59%     98.68% # Bytes accessed per row activation
system.mem_ctrls0.bytesPerActivate::896-1023          458      0.43%     99.11% # Bytes accessed per row activation
system.mem_ctrls0.bytesPerActivate::1024-1151          947      0.89%    100.00% # Bytes accessed per row activation
system.mem_ctrls0.bytesPerActivate::total       106555                       # Bytes accessed per row activation
system.mem_ctrls0.rdPerTurnAround::samples        17494                       # Reads before turning the bus around for writes
system.mem_ctrls0.rdPerTurnAround::mean     11.236024                       # Reads before turning the bus around for writes
system.mem_ctrls0.rdPerTurnAround::stdev    32.062147                       # Reads before turning the bus around for writes
system.mem_ctrls0.rdPerTurnAround::0-127        17486     99.95%     99.95% # Reads before turning the bus around for writes
system.mem_ctrls0.rdPerTurnAround::128-255            7      0.04%     99.99% # Reads before turning the bus around for writes
system.mem_ctrls0.rdPerTurnAround::3968-4095            1      0.01%    100.00% # Reads before turning the bus around for writes
system.mem_ctrls0.rdPerTurnAround::total        17494                       # Reads before turning the bus around for writes
system.mem_ctrls0.wrPerTurnAround::samples        17494                       # Writes before turning the bus around for reads
system.mem_ctrls0.wrPerTurnAround::mean      7.151423                       # Writes before turning the bus around for reads
system.mem_ctrls0.wrPerTurnAround::gmean     6.481068                       # Writes before turning the bus around for reads
system.mem_ctrls0.wrPerTurnAround::stdev     3.612860                       # Writes before turning the bus around for reads
system.mem_ctrls0.wrPerTurnAround::4-7          12607     72.06%     72.06% # Writes before turning the bus around for reads
system.mem_ctrls0.wrPerTurnAround::8-11          1909     10.91%     82.98% # Writes before turning the bus around for reads
system.mem_ctrls0.wrPerTurnAround::12-15         1995     11.40%     94.38% # Writes before turning the bus around for reads
system.mem_ctrls0.wrPerTurnAround::16-19          983      5.62%    100.00% # Writes before turning the bus around for reads
system.mem_ctrls0.wrPerTurnAround::total        17494                       # Writes before turning the bus around for reads
system.mem_ctrls0.totQLat                 37546935684                       # Total ticks spent queuing
system.mem_ctrls0.totMemAccLat            41232566934                       # Total ticks spent from burst creation until serviced by the DRAM
system.mem_ctrls0.totBusLat                 982835000                       # Total ticks spent in databus transfers
system.mem_ctrls0.avgQLat                   191013.42                       # Average queueing delay per DRAM burst
system.mem_ctrls0.avgBusLat                   5000.00                       # Average bus latency per DRAM burst
system.mem_ctrls0.avgMemAccLat              209763.42                       # Average memory access latency per DRAM burst
system.mem_ctrls0.avgRdBW                      221.32                       # Average DRAM read bandwidth in MiByte/s
system.mem_ctrls0.avgWrBW                      140.86                       # Average achieved write bandwidth in MiByte/s
system.mem_ctrls0.avgRdBWSys                   221.34                       # Average system read bandwidth in MiByte/s
system.mem_ctrls0.avgWrBWSys                   140.86                       # Average system write bandwidth in MiByte/s
system.mem_ctrls0.peakBW                     12800.00                       # Theoretical peak bandwidth in MiByte/s
system.mem_ctrls0.busUtil                        2.83                       # Data bus utilization in percentage
system.mem_ctrls0.busUtilRead                    1.73                       # Data bus utilization in percentage for reads
system.mem_ctrls0.busUtilWrite                   1.10                       # Data bus utilization in percentage for writes
system.mem_ctrls0.avgRdQLen                      1.68                       # Average read queue length when enqueuing
system.mem_ctrls0.avgWrQLen                      2.94                       # Average write queue length when enqueuing
system.mem_ctrls0.readRowHits                  142845                       # Number of row buffer hits during reads
system.mem_ctrls0.writeRowHits                  72262                       # Number of row buffer hits during writes
system.mem_ctrls0.readRowHitRate                72.67                       # Row buffer hit rate for reads
system.mem_ctrls0.writeRowHitRate               57.76                       # Row buffer hit rate for writes
system.mem_ctrls0.avgGap                    176695.26                       # Average gap between requests
system.mem_ctrls0.pageHitRate                   66.87                       # Row buffer hit rate, read and write combined
system.mem_ctrls0.memoryStateTime::IDLE   11627434750                       # Time in different power states
system.mem_ctrls0.memoryStateTime::REF     1898000000                       # Time in different power states
system.mem_ctrls0.memoryStateTime::PRE_PDN            0                       # Time in different power states
system.mem_ctrls0.memoryStateTime::ACT    43314902250                       # Time in different power states
system.mem_ctrls0.memoryStateTime::ACT_PDN            0                       # Time in different power states
system.mem_ctrls0.actEnergy::0              406191240                       # Energy for activate commands per rank (pJ)
system.mem_ctrls0.actEnergy::1              399304080                       # Energy for activate commands per rank (pJ)
system.mem_ctrls0.preEnergy::0              221632125                       # Energy for precharge commands per rank (pJ)
system.mem_ctrls0.preEnergy::1              217874250                       # Energy for precharge commands per rank (pJ)
system.mem_ctrls0.readEnergy::0             766092600                       # Energy for read commands per rank (pJ)
system.mem_ctrls0.readEnergy::1             767005200                       # Energy for read commands per rank (pJ)
system.mem_ctrls0.writeEnergy::0            404650080                       # Energy for write commands per rank (pJ)
system.mem_ctrls0.writeEnergy::1            405978480                       # Energy for write commands per rank (pJ)
system.mem_ctrls0.refreshEnergy::0         3712488000                       # Energy for refresh commands per rank (pJ)
system.mem_ctrls0.refreshEnergy::1         3712488000                       # Energy for refresh commands per rank (pJ)
system.mem_ctrls0.actBackEnergy::0        22385332980                       # Energy for active background per rank (pJ)
system.mem_ctrls0.actBackEnergy::1        21863677815                       # Energy for active background per rank (pJ)
system.mem_ctrls0.preBackEnergy::0        14467674000                       # Energy for precharge background per rank (pJ)
system.mem_ctrls0.preBackEnergy::1        14925266250                       # Energy for precharge background per rank (pJ)
system.mem_ctrls0.totalEnergy::0          42364061025                       # Total energy per rank (pJ)
system.mem_ctrls0.totalEnergy::1          42291594075                       # Total energy per rank (pJ)
system.mem_ctrls0.averagePower::0          745.322779                       # Core power per rank (mW)
system.mem_ctrls0.averagePower::1          744.047847                       # Core power per rank (mW)
system.mem_ctrls1.bytes_read::ruby.dir_cntrl1     12334784                       # Number of bytes read from this memory
system.mem_ctrls1.bytes_read::total          12334784                       # Number of bytes read from this memory
system.mem_ctrls1.bytes_written::ruby.dir_cntrl1      7782272                       # Number of bytes written to this memory
system.mem_ctrls1.bytes_written::total        7782272                       # Number of bytes written to this memory
system.mem_ctrls1.num_reads::ruby.dir_cntrl1       192731                       # Number of read requests responded to by this memory
system.mem_ctrls1.num_reads::total             192731                       # Number of read requests responded to by this memory
system.mem_ctrls1.num_writes::ruby.dir_cntrl1       121598                       # Number of write requests responded to by this memory
system.mem_ctrls1.num_writes::total            121598                       # Number of write requests responded to by this memory
system.mem_ctrls1.bw_read::ruby.dir_cntrl1    216996666                       # Total read bandwidth from this memory (bytes/s)
system.mem_ctrls1.bw_read::total            216996666                       # Total read bandwidth from this memory (bytes/s)
system.mem_ctrls1.bw_write::ruby.dir_cntrl1    136907714                       # Write bandwidth from this memory (bytes/s)
system.mem_ctrls1.bw_write::total           136907714                       # Write bandwidth from this memory (bytes/s)
system.mem_ctrls1.bw_total::ruby.dir_cntrl1    353904379                       # Total bandwidth to/from this memory (bytes/s)
system.mem_ctrls1.bw_total::total           353904379                       # Total bandwidth to/from this memory (bytes/s)
system.mem_ctrls1.readReqs                     192731                       # Number of read requests accepted
system.mem_ctrls1.writeReqs                    121598                       # Number of write requests accepted
system.mem_ctrls1.readBursts                   192731                       # Number of DRAM read bursts, including those serviced by the write queue
system.mem_ctrls1.writeBursts                  121598                       # Number of DRAM write bursts, including those merged in the write queue
system.mem_ctrls1.bytesReadDRAM              12333376                       # Total number of bytes read from DRAM
system.mem_ctrls1.bytesReadWrQ                   1408                       # Total number of bytes read from write queue
system.mem_ctrls1.bytesWritten                7782208                       # Total number of bytes written to DRAM
system.mem_ctrls1.bytesReadSys               12334784                       # Total read bytes from the system interface side
system.mem_ctrls1.bytesWrittenSys             7782272                       # Total written bytes from the system interface side
system.mem_ctrls1.servicedByWrQ                    22                       # Number of DRAM read bursts serviced by the write queue
system.mem_ctrls1.mergedWrBursts                    0                       # Number of DRAM write bursts merged with an existing one
system.mem_ctrls1.neitherReadNorWriteReqs            0                       # Number of requests that are neither read nor write
system.mem_ctrls1.perBankRdBursts::0            11823                       # Per bank write bursts
system.mem_ctrls1.perBankRdBursts::1            12006                       # Per bank write bursts
system.mem_ctrls1.perBankRdBursts::2            11676                       # Per bank write bursts
system.mem_ctrls1.perBankRdBursts::3            12160                       # Per bank write bursts
system.mem_ctrls1.perBankRdBursts::4            11982                       # Per bank write bursts
system.mem_ctrls1.perBankRdBursts::5            12084                       # Per bank write bursts
system.mem_ctrls1.perBankRdBursts::6            12325                       # Per bank write bursts
system.mem_ctrls1.perBankRdBursts::7            12335                       # Per bank write bursts
system.mem_ctrls1.perBankRdBursts::8            12184                       # Per bank write bursts
system.mem_ctrls1.perBankRdBursts::9            12457                       # Per bank write bursts
system.mem_ctrls1.perBankRdBursts::10           12091                       # Per bank write bursts
system.mem_ctrls1.perBankRdBursts::11           12446                       # Per bank write bursts
system.mem_ctrls1.perBankRdBursts::12           11954                       # Per bank write bursts
system.mem_ctrls1.perBankRdBursts::13           11747                       # Per bank write bursts
system.mem_ctrls1.perBankRdBursts::14           11883                       # Per bank write bursts
system.mem_ctrls1.perBankRdBursts::15           11556                       # Per bank write bursts
system.mem_ctrls1.perBankWrBursts::0             7546                       # Per bank write bursts
system.mem_ctrls1.perBankWrBursts::1             7413                       # Per bank write bursts
system.mem_ctrls1.perBankWrBursts::2             7531                       # Per bank write bursts
system.mem_ctrls1.perBankWrBursts::3             7630                       # Per bank write bursts
system.mem_ctrls1.perBankWrBursts::4             7537                       # Per bank write bursts
system.mem_ctrls1.perBankWrBursts::5             7659                       # Per bank write bursts
system.mem_ctrls1.perBankWrBursts::6             7689                       # Per bank write bursts
system.mem_ctrls1.perBankWrBursts::7             7758                       # Per bank write bursts
system.mem_ctrls1.perBankWrBursts::8             7660                       # Per bank write bursts
system.mem_ctrls1.perBankWrBursts::9             7841                       # Per bank write bursts
system.mem_ctrls1.perBankWrBursts::10            7643                       # Per bank write bursts
system.mem_ctrls1.perBankWrBursts::11            7659                       # Per bank write bursts
system.mem_ctrls1.perBankWrBursts::12            7528                       # Per bank write bursts
system.mem_ctrls1.perBankWrBursts::13            7501                       # Per bank write bursts
system.mem_ctrls1.perBankWrBursts::14            7613                       # Per bank write bursts
system.mem_ctrls1.perBankWrBursts::15            7389                       # Per bank write bursts
system.mem_ctrls1.numRdRetry                    94763                       # Number of times read queue was full causing retry
system.mem_ctrls1.numWrRetry                     7709                       # Number of times write queue was full causing retry
system.mem_ctrls1.totGap                  56842412000                       # Total gap between requests
system.mem_ctrls1.readPktSize::0                    0                       # Read request sizes (log2)
system.mem_ctrls1.readPktSize::1                    0                       # Read request sizes (log2)
system.mem_ctrls1.readPktSize::2                    0                       # Read request sizes (log2)
system.mem_ctrls1.readPktSize::3                    0                       # Read request sizes (log2)
system.mem_ctrls1.readPktSize::4                    0                       # Read request sizes (log2)
system.mem_ctrls1.readPktSize::5                    0                       # Read request sizes (log2)
system.mem_ctrls1.readPktSize::6               192731                       # Read request sizes (log2)
system.mem_ctrls1.writePktSize::0                   0                       # Write request sizes (log2)
system.mem_ctrls1.writePktSize::1                   0                       # Write request sizes (log2)
system.mem_ctrls1.writePktSize::2                   0                       # Write request sizes (log2)
system.mem_ctrls1.writePktSize::3                   0                       # Write request sizes (log2)
system.mem_ctrls1.writePktSize::4                   0                       # Write request sizes (log2)
system.mem_ctrls1.writePktSize::5                   0                       # Write request sizes (log2)
system.mem_ctrls1.writePktSize::6              121598                       # Write request sizes (log2)
system.mem_ctrls1.rdQLenPdf::0                  68689                       # What read queue length does an incoming req see
system.mem_ctrls1.rdQLenPdf::1                   2473                       # What read queue length does an incoming req see
system.mem_ctrls1.rdQLenPdf::2                   1715                       # What read queue length does an incoming req see
system.mem_ctrls1.rdQLenPdf::3                   1352                       # What read queue length does an incoming req see
system.mem_ctrls1.rdQLenPdf::4                   1213                       # What read queue length does an incoming req see
system.mem_ctrls1.rdQLenPdf::5                   1128                       # What read queue length does an incoming req see
system.mem_ctrls1.rdQLenPdf::6                   1103                       # What read queue length does an incoming req see
system.mem_ctrls1.rdQLenPdf::7                    984                       # What read queue length does an incoming req see
system.mem_ctrls1.rdQLenPdf::8                    956                       # What read queue length does an incoming req see
system.mem_ctrls1.rdQLenPdf::9                    860                       # What read queue length does an incoming req see
system.mem_ctrls1.rdQLenPdf::10                   822                       # What read queue length does an incoming req see
system.mem_ctrls1.rdQLenPdf::11                   835                       # What read queue length does an incoming req see
system.mem_ctrls1.rdQLenPdf::12                   811                       # What read queue length does an incoming req see
system.mem_ctrls1.rdQLenPdf::13                   710                       # What read queue length does an incoming req see
system.mem_ctrls1.rdQLenPdf::14                   744                       # What read queue length does an incoming req see
system.mem_ctrls1.rdQLenPdf::15                   760                       # What read queue length does an incoming req see
system.mem_ctrls1.rdQLenPdf::16                   719                       # What read queue length does an incoming req see
system.mem_ctrls1.rdQLenPdf::17                   677                       # What read queue length does an incoming req see
system.mem_ctrls1.rdQLenPdf::18                   643                       # What read queue length does an incoming req see
system.mem_ctrls1.rdQLenPdf::19                   596                       # What read queue length does an incoming req see
system.mem_ctrls1.rdQLenPdf::20                   582                       # What read queue length does an incoming req see
system.mem_ctrls1.rdQLenPdf::21                   562                       # What read queue length does an incoming req see
system.mem_ctrls1.rdQLenPdf::22                   569                       # What read queue length does an incoming req see
system.mem_ctrls1.rdQLenPdf::23                   594                       # What read queue length does an incoming req see
system.mem_ctrls1.rdQLenPdf::24                   579                       # What read queue length does an incoming req see
system.mem_ctrls1.rdQLenPdf::25                   643                       # What read queue length does an incoming req see
system.mem_ctrls1.rdQLenPdf::26                   665                       # What read queue length does an incoming req see
system.mem_ctrls1.rdQLenPdf::27                   702                       # What read queue length does an incoming req see
system.mem_ctrls1.rdQLenPdf::28                   741                       # What read queue length does an incoming req see
system.mem_ctrls1.rdQLenPdf::29                   878                       # What read queue length does an incoming req see
system.mem_ctrls1.rdQLenPdf::30                  1293                       # What read queue length does an incoming req see
system.mem_ctrls1.rdQLenPdf::31                 97111                       # What read queue length does an incoming req see
system.mem_ctrls1.wrQLenPdf::0                  16331                       # What write queue length does an incoming req see
system.mem_ctrls1.wrQLenPdf::1                  17196                       # What write queue length does an incoming req see
system.mem_ctrls1.wrQLenPdf::2                  17795                       # What write queue length does an incoming req see
system.mem_ctrls1.wrQLenPdf::3                  18381                       # What write queue length does an incoming req see
system.mem_ctrls1.wrQLenPdf::4                  19053                       # What write queue length does an incoming req see
system.mem_ctrls1.wrQLenPdf::5                   7985                       # What write queue length does an incoming req see
system.mem_ctrls1.wrQLenPdf::6                   9589                       # What write queue length does an incoming req see
system.mem_ctrls1.wrQLenPdf::7                  15268                       # What write queue length does an incoming req see
system.mem_ctrls1.bytesPerActivate::samples        99521                       # Bytes accessed per row activation
system.mem_ctrls1.bytesPerActivate::mean   202.118226                       # Bytes accessed per row activation
system.mem_ctrls1.bytesPerActivate::gmean   151.133879                       # Bytes accessed per row activation
system.mem_ctrls1.bytesPerActivate::stdev   170.423493                       # Bytes accessed per row activation
system.mem_ctrls1.bytesPerActivate::0-127        34222     34.39%     34.39% # Bytes accessed per row activation
system.mem_ctrls1.bytesPerActivate::128-255        30461     30.61%     64.99% # Bytes accessed per row activation
system.mem_ctrls1.bytesPerActivate::256-383        23377     23.49%     88.48% # Bytes accessed per row activation
system.mem_ctrls1.bytesPerActivate::384-511         5014      5.04%     93.52% # Bytes accessed per row activation
system.mem_ctrls1.bytesPerActivate::512-639         3332      3.35%     96.87% # Bytes accessed per row activation
system.mem_ctrls1.bytesPerActivate::640-767         1065      1.07%     97.94% # Bytes accessed per row activation
system.mem_ctrls1.bytesPerActivate::768-895          656      0.66%     98.60% # Bytes accessed per row activation
system.mem_ctrls1.bytesPerActivate::896-1023          427      0.43%     99.03% # Bytes accessed per row activation
system.mem_ctrls1.bytesPerActivate::1024-1151          967      0.97%    100.00% # Bytes accessed per row activation
system.mem_ctrls1.bytesPerActivate::total        99521                       # Bytes accessed per row activation
system.mem_ctrls1.rdPerTurnAround::samples        16927                       # Reads before turning the bus around for writes
system.mem_ctrls1.rdPerTurnAround::mean     11.384652                       # Reads before turning the bus around for writes
system.mem_ctrls1.rdPerTurnAround::stdev    26.417109                       # Reads before turning the bus around for writes
system.mem_ctrls1.rdPerTurnAround::0-127        16920     99.96%     99.96% # Reads before turning the bus around for writes
system.mem_ctrls1.rdPerTurnAround::128-255            5      0.03%     99.99% # Reads before turning the bus around for writes
system.mem_ctrls1.rdPerTurnAround::1152-1279            1      0.01%     99.99% # Reads before turning the bus around for writes
system.mem_ctrls1.rdPerTurnAround::2816-2943            1      0.01%    100.00% # Reads before turning the bus around for writes
system.mem_ctrls1.rdPerTurnAround::total        16927                       # Reads before turning the bus around for writes
system.mem_ctrls1.wrPerTurnAround::samples        16927                       # Writes before turning the bus around for reads
system.mem_ctrls1.wrPerTurnAround::mean      7.183612                       # Writes before turning the bus around for reads
system.mem_ctrls1.wrPerTurnAround::gmean     6.500402                       # Writes before turning the bus around for reads
system.mem_ctrls1.wrPerTurnAround::stdev     3.648322                       # Writes before turning the bus around for reads
system.mem_ctrls1.wrPerTurnAround::4-7          12084     71.39%     71.39% # Writes before turning the bus around for reads
system.mem_ctrls1.wrPerTurnAround::8-11          1924     11.37%     82.76% # Writes before turning the bus around for reads
system.mem_ctrls1.wrPerTurnAround::12-15         1903     11.24%     94.00% # Writes before turning the bus around for reads
system.mem_ctrls1.wrPerTurnAround::16-19         1016      6.00%    100.00% # Writes before turning the bus around for reads
system.mem_ctrls1.wrPerTurnAround::total        16927                       # Writes before turning the bus around for reads
system.mem_ctrls1.totQLat                 36346821148                       # Total ticks spent queuing
system.mem_ctrls1.totMemAccLat            39960114898                       # Total ticks spent from burst creation until serviced by the DRAM
system.mem_ctrls1.totBusLat                 963545000                       # Total ticks spent in databus transfers
system.mem_ctrls1.avgQLat                   188609.88                       # Average queueing delay per DRAM burst
system.mem_ctrls1.avgBusLat                   5000.00                       # Average bus latency per DRAM burst
system.mem_ctrls1.avgMemAccLat              207359.88                       # Average memory access latency per DRAM burst
system.mem_ctrls1.avgRdBW                      216.97                       # Average DRAM read bandwidth in MiByte/s
system.mem_ctrls1.avgWrBW                      136.91                       # Average achieved write bandwidth in MiByte/s
system.mem_ctrls1.avgRdBWSys                   217.00                       # Average system read bandwidth in MiByte/s
system.mem_ctrls1.avgWrBWSys                   136.91                       # Average system write bandwidth in MiByte/s
system.mem_ctrls1.peakBW                     12800.00                       # Theoretical peak bandwidth in MiByte/s
system.mem_ctrls1.busUtil                        2.76                       # Data bus utilization in percentage
system.mem_ctrls1.busUtilRead                    1.70                       # Data bus utilization in percentage for reads
system.mem_ctrls1.busUtilWrite                   1.07                       # Data bus utilization in percentage for writes
system.mem_ctrls1.avgRdQLen                      1.66                       # Average read queue length when enqueuing
system.mem_ctrls1.avgWrQLen                      2.98                       # Average write queue length when enqueuing
system.mem_ctrls1.readRowHits                  141520                       # Number of row buffer hits during reads
system.mem_ctrls1.writeRowHits                  73258                       # Number of row buffer hits during writes
system.mem_ctrls1.readRowHitRate                73.44                       # Row buffer hit rate for reads
system.mem_ctrls1.writeRowHitRate               60.25                       # Row buffer hit rate for writes
system.mem_ctrls1.avgGap                    180837.31                       # Average gap between requests
system.mem_ctrls1.pageHitRate                   68.33                       # Row buffer hit rate, read and write combined
system.mem_ctrls1.memoryStateTime::IDLE   11892674750                       # Time in different power states
system.mem_ctrls1.memoryStateTime::REF     1898000000                       # Time in different power states
system.mem_ctrls1.memoryStateTime::PRE_PDN            0                       # Time in different power states
system.mem_ctrls1.memoryStateTime::ACT    43049224000                       # Time in different power states
system.mem_ctrls1.memoryStateTime::ACT_PDN            0                       # Time in different power states
system.mem_ctrls1.actEnergy::0              380071440                       # Energy for activate commands per rank (pJ)
system.mem_ctrls1.actEnergy::1              372239280                       # Energy for activate commands per rank (pJ)
system.mem_ctrls1.preEnergy::0              207380250                       # Energy for precharge commands per rank (pJ)
system.mem_ctrls1.preEnergy::1              203106750                       # Energy for precharge commands per rank (pJ)
system.mem_ctrls1.readEnergy::0             751810800                       # Energy for read commands per rank (pJ)
system.mem_ctrls1.readEnergy::1             751202400                       # Energy for read commands per rank (pJ)
system.mem_ctrls1.writeEnergy::0            393692400                       # Energy for write commands per rank (pJ)
system.mem_ctrls1.writeEnergy::1            394191360                       # Energy for write commands per rank (pJ)
system.mem_ctrls1.refreshEnergy::0         3712488000                       # Energy for refresh commands per rank (pJ)
system.mem_ctrls1.refreshEnergy::1         3712488000                       # Energy for refresh commands per rank (pJ)
system.mem_ctrls1.actBackEnergy::0        22162012110                       # Energy for active background per rank (pJ)
system.mem_ctrls1.actBackEnergy::1        21603343140                       # Energy for active background per rank (pJ)
system.mem_ctrls1.preBackEnergy::0        14663569500                       # Energy for precharge background per rank (pJ)
system.mem_ctrls1.preBackEnergy::1        15153630000                       # Energy for precharge background per rank (pJ)
system.mem_ctrls1.totalEnergy::0          42271024500                       # Total energy per rank (pJ)
system.mem_ctrls1.totalEnergy::1          42190200930                       # Total energy per rank (pJ)
system.mem_ctrls1.averagePower::0          743.685961                       # Core power per rank (mW)
system.mem_ctrls1.averagePower::1          742.264009                       # Core power per rank (mW)
system.mem_ctrls2.bytes_read::ruby.dir_cntrl2     12337856                       # Number of bytes read from this memory
system.mem_ctrls2.bytes_read::total          12337856                       # Number of bytes read from this memory
system.mem_ctrls2.bytes_written::ruby.dir_cntrl2      7781696                       # Number of bytes written to this memory
system.mem_ctrls2.bytes_written::total        7781696                       # Number of bytes written to this memory
system.mem_ctrls2.num_reads::ruby.dir_cntrl2       192779                       # Number of read requests responded to by this memory
system.mem_ctrls2.num_reads::total             192779                       # Number of read requests responded to by this memory
system.mem_ctrls2.num_writes::ruby.dir_cntrl2       121589                       # Number of write requests responded to by this memory
system.mem_ctrls2.num_writes::total            121589                       # Number of write requests responded to by this memory
system.mem_ctrls2.bw_read::ruby.dir_cntrl2    217050709                       # Total read bandwidth from this memory (bytes/s)
system.mem_ctrls2.bw_read::total            217050709                       # Total read bandwidth from this memory (bytes/s)
system.mem_ctrls2.bw_write::ruby.dir_cntrl2    136897580                       # Write bandwidth from this memory (bytes/s)
system.mem_ctrls2.bw_write::total           136897580                       # Write bandwidth from this memory (bytes/s)
system.mem_ctrls2.bw_total::ruby.dir_cntrl2    353948290                       # Total bandwidth to/from this memory (bytes/s)
system.mem_ctrls2.bw_total::total           353948290                       # Total bandwidth to/from this memory (bytes/s)
system.mem_ctrls2.readReqs                     192779                       # Number of read requests accepted
system.mem_ctrls2.writeReqs                    121589                       # Number of write requests accepted
system.mem_ctrls2.readBursts                   192779                       # Number of DRAM read bursts, including those serviced by the write queue
system.mem_ctrls2.writeBursts                  121589                       # Number of DRAM write bursts, including those merged in the write queue
system.mem_ctrls2.bytesReadDRAM              12336512                       # Total number of bytes read from DRAM
system.mem_ctrls2.bytesReadWrQ                   1344                       # Total number of bytes read from write queue
system.mem_ctrls2.bytesWritten                7781696                       # Total number of bytes written to DRAM
system.mem_ctrls2.bytesReadSys               12337856                       # Total read bytes from the system interface side
system.mem_ctrls2.bytesWrittenSys             7781696                       # Total written bytes from the system interface side
system.mem_ctrls2.servicedByWrQ                    21                       # Number of DRAM read bursts serviced by the write queue
system.mem_ctrls2.mergedWrBursts                    0                       # Number of DRAM write bursts merged with an existing one
system.mem_ctrls2.neitherReadNorWriteReqs            0                       # Number of requests that are neither read nor write
system.mem_ctrls2.perBankRdBursts::0            11825                       # Per bank write bursts
system.mem_ctrls2.perBankRdBursts::1            12035                       # Per bank write bursts
system.mem_ctrls2.perBankRdBursts::2            11705                       # Per bank write bursts
system.mem_ctrls2.perBankRdBursts::3            12201                       # Per bank write bursts
system.mem_ctrls2.perBankRdBursts::4            11984                       # Per bank write bursts
system.mem_ctrls2.perBankRdBursts::5            12069                       # Per bank write bursts
system.mem_ctrls2.perBankRdBursts::6            12309                       # Per bank write bursts
system.mem_ctrls2.perBankRdBursts::7            12322                       # Per bank write bursts
system.mem_ctrls2.perBankRdBursts::8            12184                       # Per bank write bursts
system.mem_ctrls2.perBankRdBursts::9            12441                       # Per bank write bursts
system.mem_ctrls2.perBankRdBursts::10           12103                       # Per bank write bursts
system.mem_ctrls2.perBankRdBursts::11           12485                       # Per bank write bursts
system.mem_ctrls2.perBankRdBursts::12           11948                       # Per bank write bursts
system.mem_ctrls2.perBankRdBursts::13           11718                       # Per bank write bursts
system.mem_ctrls2.perBankRdBursts::14           11876                       # Per bank write bursts
system.mem_ctrls2.perBankRdBursts::15           11553                       # Per bank write bursts
system.mem_ctrls2.perBankWrBursts::0             7540                       # Per bank write bursts
system.mem_ctrls2.perBankWrBursts::1             7410                       # Per bank write bursts
system.mem_ctrls2.perBankWrBursts::2             7534                       # Per bank write bursts
system.mem_ctrls2.perBankWrBursts::3             7639                       # Per bank write bursts
system.mem_ctrls2.perBankWrBursts::4             7535                       # Per bank write bursts
system.mem_ctrls2.perBankWrBursts::5             7641                       # Per bank write bursts
system.mem_ctrls2.perBankWrBursts::6             7679                       # Per bank write bursts
system.mem_ctrls2.perBankWrBursts::7             7762                       # Per bank write bursts
system.mem_ctrls2.perBankWrBursts::8             7663                       # Per bank write bursts
system.mem_ctrls2.perBankWrBursts::9             7842                       # Per bank write bursts
system.mem_ctrls2.perBankWrBursts::10            7642                       # Per bank write bursts
system.mem_ctrls2.perBankWrBursts::11            7671                       # Per bank write bursts
system.mem_ctrls2.perBankWrBursts::12            7533                       # Per bank write bursts
system.mem_ctrls2.perBankWrBursts::13            7493                       # Per bank write bursts
system.mem_ctrls2.perBankWrBursts::14            7616                       # Per bank write bursts
system.mem_ctrls2.perBankWrBursts::15            7389                       # Per bank write bursts
system.mem_ctrls2.numRdRetry                    94256                       # Number of times read queue was full causing retry
system.mem_ctrls2.numWrRetry                     7642                       # Number of times write queue was full causing retry
system.mem_ctrls2.totGap                  56843072000                       # Total gap between requests
system.mem_ctrls2.readPktSize::0                    0                       # Read request sizes (log2)
system.mem_ctrls2.readPktSize::1                    0                       # Read request sizes (log2)
system.mem_ctrls2.readPktSize::2                    0                       # Read request sizes (log2)
system.mem_ctrls2.readPktSize::3                    0                       # Read request sizes (log2)
system.mem_ctrls2.readPktSize::4                    0                       # Read request sizes (log2)
system.mem_ctrls2.readPktSize::5                    0                       # Read request sizes (log2)
system.mem_ctrls2.readPktSize::6               192779                       # Read request sizes (log2)
system.mem_ctrls2.writePktSize::0                   0                       # Write request sizes (log2)
system.mem_ctrls2.writePktSize::1                   0                       # Write request sizes (log2)
system.mem_ctrls2.writePktSize::2                   0                       # Write request sizes (log2)
system.mem_ctrls2.writePktSize::3                   0                       # Write request sizes (log2)
system.mem_ctrls2.writePktSize::4                   0                       # Write request sizes (log2)
system.mem_ctrls2.writePktSize::5                   0                       # Write request sizes (log2)
system.mem_ctrls2.writePktSize::6              121589                       # Write request sizes (log2)
system.mem_ctrls2.rdQLenPdf::0                  68765                       # What read queue length does an incoming req see
system.mem_ctrls2.rdQLenPdf::1                   2359                       # What read queue length does an incoming req see
system.mem_ctrls2.rdQLenPdf::2                   1661                       # What read queue length does an incoming req see
system.mem_ctrls2.rdQLenPdf::3                   1464                       # What read queue length does an incoming req see
system.mem_ctrls2.rdQLenPdf::4                   1295                       # What read queue length does an incoming req see
system.mem_ctrls2.rdQLenPdf::5                   1186                       # What read queue length does an incoming req see
system.mem_ctrls2.rdQLenPdf::6                   1147                       # What read queue length does an incoming req see
system.mem_ctrls2.rdQLenPdf::7                    995                       # What read queue length does an incoming req see
system.mem_ctrls2.rdQLenPdf::8                    968                       # What read queue length does an incoming req see
system.mem_ctrls2.rdQLenPdf::9                    869                       # What read queue length does an incoming req see
system.mem_ctrls2.rdQLenPdf::10                   902                       # What read queue length does an incoming req see
system.mem_ctrls2.rdQLenPdf::11                   844                       # What read queue length does an incoming req see
system.mem_ctrls2.rdQLenPdf::12                   773                       # What read queue length does an incoming req see
system.mem_ctrls2.rdQLenPdf::13                   767                       # What read queue length does an incoming req see
system.mem_ctrls2.rdQLenPdf::14                   724                       # What read queue length does an incoming req see
system.mem_ctrls2.rdQLenPdf::15                   735                       # What read queue length does an incoming req see
system.mem_ctrls2.rdQLenPdf::16                   685                       # What read queue length does an incoming req see
system.mem_ctrls2.rdQLenPdf::17                   657                       # What read queue length does an incoming req see
system.mem_ctrls2.rdQLenPdf::18                   688                       # What read queue length does an incoming req see
system.mem_ctrls2.rdQLenPdf::19                   666                       # What read queue length does an incoming req see
system.mem_ctrls2.rdQLenPdf::20                   699                       # What read queue length does an incoming req see
system.mem_ctrls2.rdQLenPdf::21                   589                       # What read queue length does an incoming req see
system.mem_ctrls2.rdQLenPdf::22                   590                       # What read queue length does an incoming req see
system.mem_ctrls2.rdQLenPdf::23                   554                       # What read queue length does an incoming req see
system.mem_ctrls2.rdQLenPdf::24                   588                       # What read queue length does an incoming req see
system.mem_ctrls2.rdQLenPdf::25                   592                       # What read queue length does an incoming req see
system.mem_ctrls2.rdQLenPdf::26                   639                       # What read queue length does an incoming req see
system.mem_ctrls2.rdQLenPdf::27                   707                       # What read queue length does an incoming req see
system.mem_ctrls2.rdQLenPdf::28                   774                       # What read queue length does an incoming req see
system.mem_ctrls2.rdQLenPdf::29                   942                       # What read queue length does an incoming req see
system.mem_ctrls2.rdQLenPdf::30                  1355                       # What read queue length does an incoming req see
system.mem_ctrls2.rdQLenPdf::31                 96579                       # What read queue length does an incoming req see
system.mem_ctrls2.wrQLenPdf::0                  16331                       # What write queue length does an incoming req see
system.mem_ctrls2.wrQLenPdf::1                  17226                       # What write queue length does an incoming req see
system.mem_ctrls2.wrQLenPdf::2                  17775                       # What write queue length does an incoming req see
system.mem_ctrls2.wrQLenPdf::3                  18424                       # What write queue length does an incoming req see
system.mem_ctrls2.wrQLenPdf::4                  19163                       # What write queue length does an incoming req see
system.mem_ctrls2.wrQLenPdf::5                   8044                       # What write queue length does an incoming req see
system.mem_ctrls2.wrQLenPdf::6                   9521                       # What write queue length does an incoming req see
system.mem_ctrls2.wrQLenPdf::7                  15105                       # What write queue length does an incoming req see
system.mem_ctrls2.bytesPerActivate::samples        99140                       # Bytes accessed per row activation
system.mem_ctrls2.bytesPerActivate::mean   202.920153                       # Bytes accessed per row activation
system.mem_ctrls2.bytesPerActivate::gmean   151.818701                       # Bytes accessed per row activation
system.mem_ctrls2.bytesPerActivate::stdev   170.512780                       # Bytes accessed per row activation
system.mem_ctrls2.bytesPerActivate::0-127        33858     34.15%     34.15% # Bytes accessed per row activation
system.mem_ctrls2.bytesPerActivate::128-255        30382     30.65%     64.80% # Bytes accessed per row activation
system.mem_ctrls2.bytesPerActivate::256-383        23474     23.68%     88.47% # Bytes accessed per row activation
system.mem_ctrls2.bytesPerActivate::384-511         4900      4.94%     93.42% # Bytes accessed per row activation
system.mem_ctrls2.bytesPerActivate::512-639         3489      3.52%     96.94% # Bytes accessed per row activation
system.mem_ctrls2.bytesPerActivate::640-767          989      1.00%     97.93% # Bytes accessed per row activation
system.mem_ctrls2.bytesPerActivate::768-895          646      0.65%     98.59% # Bytes accessed per row activation
system.mem_ctrls2.bytesPerActivate::896-1023          443      0.45%     99.03% # Bytes accessed per row activation
system.mem_ctrls2.bytesPerActivate::1024-1151          959      0.97%    100.00% # Bytes accessed per row activation
system.mem_ctrls2.bytesPerActivate::total        99140                       # Bytes accessed per row activation
system.mem_ctrls2.rdPerTurnAround::samples        16932                       # Reads before turning the bus around for writes
system.mem_ctrls2.rdPerTurnAround::mean     11.384243                       # Reads before turning the bus around for writes
system.mem_ctrls2.rdPerTurnAround::stdev    26.488349                       # Reads before turning the bus around for writes
system.mem_ctrls2.rdPerTurnAround::0-127        16927     99.97%     99.97% # Reads before turning the bus around for writes
system.mem_ctrls2.rdPerTurnAround::128-255            3      0.02%     99.99% # Reads before turning the bus around for writes
system.mem_ctrls2.rdPerTurnAround::1152-1279            1      0.01%     99.99% # Reads before turning the bus around for writes
system.mem_ctrls2.rdPerTurnAround::2816-2943            1      0.01%    100.00% # Reads before turning the bus around for writes
system.mem_ctrls2.rdPerTurnAround::total        16932                       # Reads before turning the bus around for writes
system.mem_ctrls2.wrPerTurnAround::samples        16932                       # Writes before turning the bus around for reads
system.mem_ctrls2.wrPerTurnAround::mean      7.181018                       # Writes before turning the bus around for reads
system.mem_ctrls2.wrPerTurnAround::gmean     6.497873                       # Writes before turning the bus around for reads
system.mem_ctrls2.wrPerTurnAround::stdev     3.644259                       # Writes before turning the bus around for reads
system.mem_ctrls2.wrPerTurnAround::4-7          12107     71.50%     71.50% # Writes before turning the bus around for reads
system.mem_ctrls2.wrPerTurnAround::8-11          1892     11.17%     82.68% # Writes before turning the bus around for reads
system.mem_ctrls2.wrPerTurnAround::12-15         1946     11.49%     94.17% # Writes before turning the bus around for reads
system.mem_ctrls2.wrPerTurnAround::16-19          987      5.83%    100.00% # Writes before turning the bus around for reads
system.mem_ctrls2.wrPerTurnAround::total        16932                       # Writes before turning the bus around for reads
system.mem_ctrls2.totQLat                 36208616618                       # Total ticks spent queuing
system.mem_ctrls2.totMemAccLat            39822829118                       # Total ticks spent from burst creation until serviced by the DRAM
system.mem_ctrls2.totBusLat                 963790000                       # Total ticks spent in databus transfers
system.mem_ctrls2.avgQLat                   187844.95                       # Average queueing delay per DRAM burst
system.mem_ctrls2.avgBusLat                   5000.00                       # Average bus latency per DRAM burst
system.mem_ctrls2.avgMemAccLat              206594.95                       # Average memory access latency per DRAM burst
system.mem_ctrls2.avgRdBW                      217.03                       # Average DRAM read bandwidth in MiByte/s
system.mem_ctrls2.avgWrBW                      136.90                       # Average achieved write bandwidth in MiByte/s
system.mem_ctrls2.avgRdBWSys                   217.05                       # Average system read bandwidth in MiByte/s
system.mem_ctrls2.avgWrBWSys                   136.90                       # Average system write bandwidth in MiByte/s
system.mem_ctrls2.peakBW                     12800.00                       # Theoretical peak bandwidth in MiByte/s
system.mem_ctrls2.busUtil                        2.77                       # Data bus utilization in percentage
system.mem_ctrls2.busUtilRead                    1.70                       # Data bus utilization in percentage for reads
system.mem_ctrls2.busUtilWrite                   1.07                       # Data bus utilization in percentage for writes
system.mem_ctrls2.avgRdQLen                      1.66                       # Average read queue length when enqueuing
system.mem_ctrls2.avgWrQLen                      2.94                       # Average write queue length when enqueuing
system.mem_ctrls2.readRowHits                  141672                       # Number of row buffer hits during reads
system.mem_ctrls2.writeRowHits                  73529                       # Number of row buffer hits during writes
system.mem_ctrls2.readRowHitRate                73.50                       # Row buffer hit rate for reads
system.mem_ctrls2.writeRowHitRate               60.47                       # Row buffer hit rate for writes
system.mem_ctrls2.avgGap                    180816.98                       # Average gap between requests
system.mem_ctrls2.pageHitRate                   68.46                       # Row buffer hit rate, read and write combined
system.mem_ctrls2.memoryStateTime::IDLE   11875113500                       # Time in different power states
system.mem_ctrls2.memoryStateTime::REF     1898000000                       # Time in different power states
system.mem_ctrls2.memoryStateTime::PRE_PDN            0                       # Time in different power states
system.mem_ctrls2.memoryStateTime::ACT    43066919500                       # Time in different power states
system.mem_ctrls2.memoryStateTime::ACT_PDN            0                       # Time in different power states
system.mem_ctrls2.actEnergy::0              377667360                       # Energy for activate commands per rank (pJ)
system.mem_ctrls2.actEnergy::1              371740320                       # Energy for activate commands per rank (pJ)
system.mem_ctrls2.preEnergy::0              206068500                       # Energy for precharge commands per rank (pJ)
system.mem_ctrls2.preEnergy::1              202834500                       # Energy for precharge commands per rank (pJ)
system.mem_ctrls2.readEnergy::0             752263200                       # Energy for read commands per rank (pJ)
system.mem_ctrls2.readEnergy::1             751124400                       # Energy for read commands per rank (pJ)
system.mem_ctrls2.writeEnergy::0            393549840                       # Energy for write commands per rank (pJ)
system.mem_ctrls2.writeEnergy::1            394282080                       # Energy for write commands per rank (pJ)
system.mem_ctrls2.refreshEnergy::0         3712488000                       # Energy for refresh commands per rank (pJ)
system.mem_ctrls2.refreshEnergy::1         3712488000                       # Energy for refresh commands per rank (pJ)
system.mem_ctrls2.actBackEnergy::0        21912641100                       # Energy for active background per rank (pJ)
system.mem_ctrls2.actBackEnergy::1        21410629560                       # Energy for active background per rank (pJ)
system.mem_ctrls2.preBackEnergy::0        14882316000                       # Energy for precharge background per rank (pJ)
system.mem_ctrls2.preBackEnergy::1        15322677000                       # Energy for precharge background per rank (pJ)
system.mem_ctrls2.totalEnergy::0          42236994000                       # Total energy per rank (pJ)
system.mem_ctrls2.totalEnergy::1          42165775860                       # Total energy per rank (pJ)
system.mem_ctrls2.averagePower::0          743.087253                       # Core power per rank (mW)
system.mem_ctrls2.averagePower::1          741.834292                       # Core power per rank (mW)
system.mem_ctrls3.bytes_read::ruby.dir_cntrl3     12318144                       # Number of bytes read from this memory
system.mem_ctrls3.bytes_read::total          12318144                       # Number of bytes read from this memory
system.mem_ctrls3.bytes_written::ruby.dir_cntrl3      7780096                       # Number of bytes written to this memory
system.mem_ctrls3.bytes_written::total        7780096                       # Number of bytes written to this memory
system.mem_ctrls3.num_reads::ruby.dir_cntrl3       192471                       # Number of read requests responded to by this memory
system.mem_ctrls3.num_reads::total             192471                       # Number of read requests responded to by this memory
system.mem_ctrls3.num_writes::ruby.dir_cntrl3       121564                       # Number of write requests responded to by this memory
system.mem_ctrls3.num_writes::total            121564                       # Number of write requests responded to by this memory
system.mem_ctrls3.bw_read::ruby.dir_cntrl3    216703931                       # Total read bandwidth from this memory (bytes/s)
system.mem_ctrls3.bw_read::total            216703931                       # Total read bandwidth from this memory (bytes/s)
system.mem_ctrls3.bw_write::ruby.dir_cntrl3    136869433                       # Write bandwidth from this memory (bytes/s)
system.mem_ctrls3.bw_write::total           136869433                       # Write bandwidth from this memory (bytes/s)
system.mem_ctrls3.bw_total::ruby.dir_cntrl3    353573363                       # Total bandwidth to/from this memory (bytes/s)
system.mem_ctrls3.bw_total::total           353573363                       # Total bandwidth to/from this memory (bytes/s)
system.mem_ctrls3.readReqs                     192471                       # Number of read requests accepted
system.mem_ctrls3.writeReqs                    121564                       # Number of write requests accepted
system.mem_ctrls3.readBursts                   192471                       # Number of DRAM read bursts, including those serviced by the write queue
system.mem_ctrls3.writeBursts                  121564                       # Number of DRAM write bursts, including those merged in the write queue
system.mem_ctrls3.bytesReadDRAM              12316800                       # Total number of bytes read from DRAM
system.mem_ctrls3.bytesReadWrQ                   1344                       # Total number of bytes read from write queue
system.mem_ctrls3.bytesWritten                7780096                       # Total number of bytes written to DRAM
system.mem_ctrls3.bytesReadSys               12318144                       # Total read bytes from the system interface side
system.mem_ctrls3.bytesWrittenSys             7780096                       # Total written bytes from the system interface side
system.mem_ctrls3.servicedByWrQ                    21                       # Number of DRAM read bursts serviced by the write queue
system.mem_ctrls3.mergedWrBursts                    0                       # Number of DRAM write bursts merged with an existing one
system.mem_ctrls3.neitherReadNorWriteReqs            0                       # Number of requests that are neither read nor write
system.mem_ctrls3.perBankRdBursts::0            11804                       # Per bank write bursts
system.mem_ctrls3.perBankRdBursts::1            11986                       # Per bank write bursts
system.mem_ctrls3.perBankRdBursts::2            11655                       # Per bank write bursts
system.mem_ctrls3.perBankRdBursts::3            12154                       # Per bank write bursts
system.mem_ctrls3.perBankRdBursts::4            11934                       # Per bank write bursts
system.mem_ctrls3.perBankRdBursts::5            12050                       # Per bank write bursts
system.mem_ctrls3.perBankRdBursts::6            12299                       # Per bank write bursts
system.mem_ctrls3.perBankRdBursts::7            12299                       # Per bank write bursts
system.mem_ctrls3.perBankRdBursts::8            12178                       # Per bank write bursts
system.mem_ctrls3.perBankRdBursts::9            12435                       # Per bank write bursts
system.mem_ctrls3.perBankRdBursts::10           12130                       # Per bank write bursts
system.mem_ctrls3.perBankRdBursts::11           12418                       # Per bank write bursts
system.mem_ctrls3.perBankRdBursts::12           11944                       # Per bank write bursts
system.mem_ctrls3.perBankRdBursts::13           11720                       # Per bank write bursts
system.mem_ctrls3.perBankRdBursts::14           11897                       # Per bank write bursts
system.mem_ctrls3.perBankRdBursts::15           11547                       # Per bank write bursts
system.mem_ctrls3.perBankWrBursts::0             7544                       # Per bank write bursts
system.mem_ctrls3.perBankWrBursts::1             7399                       # Per bank write bursts
system.mem_ctrls3.perBankWrBursts::2             7530                       # Per bank write bursts
system.mem_ctrls3.perBankWrBursts::3             7627                       # Per bank write bursts
system.mem_ctrls3.perBankWrBursts::4             7529                       # Per bank write bursts
system.mem_ctrls3.perBankWrBursts::5             7646                       # Per bank write bursts
system.mem_ctrls3.perBankWrBursts::6             7682                       # Per bank write bursts
system.mem_ctrls3.perBankWrBursts::7             7754                       # Per bank write bursts
system.mem_ctrls3.perBankWrBursts::8             7660                       # Per bank write bursts
system.mem_ctrls3.perBankWrBursts::9             7843                       # Per bank write bursts
system.mem_ctrls3.perBankWrBursts::10            7642                       # Per bank write bursts
system.mem_ctrls3.perBankWrBursts::11            7678                       # Per bank write bursts
system.mem_ctrls3.perBankWrBursts::12            7529                       # Per bank write bursts
system.mem_ctrls3.perBankWrBursts::13            7500                       # Per bank write bursts
system.mem_ctrls3.perBankWrBursts::14            7615                       # Per bank write bursts
system.mem_ctrls3.perBankWrBursts::15            7386                       # Per bank write bursts
system.mem_ctrls3.numRdRetry                    94237                       # Number of times read queue was full causing retry
system.mem_ctrls3.numWrRetry                     8189                       # Number of times write queue was full causing retry
system.mem_ctrls3.totGap                  56842173500                       # Total gap between requests
system.mem_ctrls3.readPktSize::0                    0                       # Read request sizes (log2)
system.mem_ctrls3.readPktSize::1                    0                       # Read request sizes (log2)
system.mem_ctrls3.readPktSize::2                    0                       # Read request sizes (log2)
system.mem_ctrls3.readPktSize::3                    0                       # Read request sizes (log2)
system.mem_ctrls3.readPktSize::4                    0                       # Read request sizes (log2)
system.mem_ctrls3.readPktSize::5                    0                       # Read request sizes (log2)
system.mem_ctrls3.readPktSize::6               192471                       # Read request sizes (log2)
system.mem_ctrls3.writePktSize::0                   0                       # Write request sizes (log2)
system.mem_ctrls3.writePktSize::1                   0                       # Write request sizes (log2)
system.mem_ctrls3.writePktSize::2                   0                       # Write request sizes (log2)
system.mem_ctrls3.writePktSize::3                   0                       # Write request sizes (log2)
system.mem_ctrls3.writePktSize::4                   0                       # Write request sizes (log2)
system.mem_ctrls3.writePktSize::5                   0                       # Write request sizes (log2)
system.mem_ctrls3.writePktSize::6              121564                       # Write request sizes (log2)
system.mem_ctrls3.rdQLenPdf::0                  68458                       # What read queue length does an incoming req see
system.mem_ctrls3.rdQLenPdf::1                   2512                       # What read queue length does an incoming req see
system.mem_ctrls3.rdQLenPdf::2                   1676                       # What read queue length does an incoming req see
system.mem_ctrls3.rdQLenPdf::3                   1359                       # What read queue length does an incoming req see
system.mem_ctrls3.rdQLenPdf::4                   1214                       # What read queue length does an incoming req see
system.mem_ctrls3.rdQLenPdf::5                   1089                       # What read queue length does an incoming req see
system.mem_ctrls3.rdQLenPdf::6                   1045                       # What read queue length does an incoming req see
system.mem_ctrls3.rdQLenPdf::7                    981                       # What read queue length does an incoming req see
system.mem_ctrls3.rdQLenPdf::8                    888                       # What read queue length does an incoming req see
system.mem_ctrls3.rdQLenPdf::9                    857                       # What read queue length does an incoming req see
system.mem_ctrls3.rdQLenPdf::10                   818                       # What read queue length does an incoming req see
system.mem_ctrls3.rdQLenPdf::11                   781                       # What read queue length does an incoming req see
system.mem_ctrls3.rdQLenPdf::12                   737                       # What read queue length does an incoming req see
system.mem_ctrls3.rdQLenPdf::13                   742                       # What read queue length does an incoming req see
system.mem_ctrls3.rdQLenPdf::14                   783                       # What read queue length does an incoming req see
system.mem_ctrls3.rdQLenPdf::15                   765                       # What read queue length does an incoming req see
system.mem_ctrls3.rdQLenPdf::16                   708                       # What read queue length does an incoming req see
system.mem_ctrls3.rdQLenPdf::17                   702                       # What read queue length does an incoming req see
system.mem_ctrls3.rdQLenPdf::18                   684                       # What read queue length does an incoming req see
system.mem_ctrls3.rdQLenPdf::19                   674                       # What read queue length does an incoming req see
system.mem_ctrls3.rdQLenPdf::20                   636                       # What read queue length does an incoming req see
system.mem_ctrls3.rdQLenPdf::21                   588                       # What read queue length does an incoming req see
system.mem_ctrls3.rdQLenPdf::22                   623                       # What read queue length does an incoming req see
system.mem_ctrls3.rdQLenPdf::23                   638                       # What read queue length does an incoming req see
system.mem_ctrls3.rdQLenPdf::24                   628                       # What read queue length does an incoming req see
[...]
system.ruby.L2Cache_Controller.S_I.Ack_all::total          264                      
system.ruby.L2Cache_Controller.ISS.Mem_Data |       12355      4.34%      4.34% |        8849      3.11%      7.44% |        8860      3.11%     10.55% |        8808      3.09%     13.64% |        8764      3.08%     16.72% |        8746      3.07%     19.79% |        8773      3.08%     22.87% |        8778      3.08%     25.95% |        8796      3.09%     29.03% |        8833      3.10%     32.13% |        8865      3.11%     35.25% |        8776      3.08%     38.33% |        8799      3.09%     41.41% |        8780      3.08%     44.49% |        8785      3.08%     47.58% |        8727      3.06%     50.64% |        8894      3.12%     53.76% |        8765      3.08%     56.84% |        8785      3.08%     59.92% |        8791      3.09%     63.01% |        8778      3.08%     66.09% |        8781      3.08%     69.17% |        8790      3.08%     72.25% |        8771      3.08%     75.33% |        8781      3.08%     78.41% |        8811      3.09%     81.51% |        8786      3.08%     84.59% |        8764      3.08%     87.67% |        8808      3.09%     90.76% |        8784      3.08%     93.84% |        8760      3.07%     96.91% |        8794      3.09%    100.00%
system.ruby.L2Cache_Controller.ISS.Mem_Data::total       284937                      
system.ruby.L2Cache_Controller.IS.Mem_Data |         446      3.31%      3.31% |         421      3.12%      6.43% |         414      3.07%      9.49% |         405      3.00%     12.50% |         410      3.04%     15.54% |         401      2.97%     18.51% |         415      3.08%     21.58% |         418      3.10%     24.68% |         407      3.02%     27.70% |         417      3.09%     30.79% |         443      3.28%     34.07% |         434      3.22%     37.29% |         448      3.32%     40.61% |         426      3.16%     43.77% |         446      3.31%     47.07% |         440      3.26%     50.33% |         450      3.34%     53.67% |         440      3.26%     56.93% |         434      3.22%     60.15% |         405      3.00%     63.15% |         385      2.85%     66.00% |         409      3.03%     69.03% |         404      2.99%     72.03% |         395      2.93%     74.96% |         427      3.16%     78.12% |         447      3.31%     81.43% |         436      3.23%     84.66% |         401      2.97%     87.64% |         415      3.08%     90.71% |         426      3.16%     93.87% |         425      3.15%     97.02% |         402      2.98%    100.00%
system.ruby.L2Cache_Controller.IS.Mem_Data::total        13492                      
system.ruby.L2Cache_Controller.IM.L1_GETX |           1    100.00%    100.00% |           0      0.00%    100.00% |           0      0.00%    100.00% |           0      0.00%    100.00% |           0      0.00%    100.00% |           0      0.00%    100.00% |           0      0.00%    100.00% |           0      0.00%    100.00% |           0      0.00%    100.00% |           0      0.00%    100.00% |           0      0.00%    100.00% |           0      0.00%    100.00% |           0      0.00%    100.00% |           0      0.00%    100.00% |           0      0.00%    100.00% |           0      0.00%    100.00% |           0      0.00%    100.00% |           0      0.00%    100.00% |           0      0.00%    100.00% |           0      0.00%    100.00% |           0      0.00%    100.00% |           0      0.00%    100.00% |           0      0.00%    100.00% |           0      0.00%    100.00% |           0      0.00%    100.00% |           0      0.00%    100.00% |           0      0.00%    100.00% |           0      0.00%    100.00% |           0      0.00%    100.00% |           0      0.00%    100.00% |           0      0.00%    100.00% |           0      0.00%    100.00%
system.ruby.L2Cache_Controller.IM.L1_GETX::total            1                      
system.ruby.L2Cache_Controller.IM.Mem_Data |       15014      3.15%      3.15% |       14862      3.12%      6.27% |       14866      3.12%      9.40% |       14869      3.12%     12.52% |       14864      3.12%     15.64% |       14869      3.12%     18.77% |       14873      3.12%     21.89% |       14867      3.12%     25.01% |       14872      3.12%     28.14% |       14878      3.12%     31.26% |       14858      3.12%     34.38% |       14880      3.13%     37.51% |       14869      3.12%     40.63% |       14873      3.12%     43.75% |       14866      3.12%     46.88% |       14859      3.12%     50.00% |       14939      3.14%     53.13% |       14877      3.12%     56.26% |       14876      3.12%     59.38% |       14879      3.13%     62.51% |       14891      3.13%     65.64% |       14896      3.13%     68.76% |       14865      3.12%     71.89% |       14876      3.12%     75.01% |       14888      3.13%     78.14% |       14877      3.12%     81.26% |       14881      3.13%     84.39% |       14871      3.12%     87.51% |       14864      3.12%     90.63% |       14863      3.12%     93.75% |       14873      3.12%     96.88% |       14861      3.12%    100.00%
system.ruby.L2Cache_Controller.IM.Mem_Data::total       476116                      
system.ruby.L2Cache_Controller.SS_MB.Exclusive_Unblock |           3      6.12%      6.12% |           6     12.24%     18.37% |           2      4.08%     22.45% |           3      6.12%     28.57% |           0      0.00%     28.57% |           0      0.00%     28.57% |           0      0.00%     28.57% |           0      0.00%     28.57% |           1      2.04%     30.61% |           0      0.00%     30.61% |           0      0.00%     30.61% |           1      2.04%     32.65% |           4      8.16%     40.82% |           0      0.00%     40.82% |           2      4.08%     44.90% |           0      0.00%     44.90% |           1      2.04%     46.94% |           2      4.08%     51.02% |          13     26.53%     77.55% |           3      6.12%     83.67% |           0      0.00%     83.67% |           0      0.00%     83.67% |           0      0.00%     83.67% |           0      0.00%     83.67% |           1      2.04%     85.71% |           0      0.00%     85.71% |           3      6.12%     91.84% |           4      8.16%    100.00% |           0      0.00%    100.00% |           0      0.00%    100.00% |           0      0.00%    100.00% |           0      0.00%    100.00%
system.ruby.L2Cache_Controller.SS_MB.Exclusive_Unblock::total           49                      
system.ruby.L2Cache_Controller.MT_MB.Exclusive_Unblock |       75581      7.25%      7.25% |       32570      3.12%     10.37% |       29202      2.80%     13.17% |       32115      3.08%     16.26% |       29487      2.83%     19.08% |       29380      2.82%     21.90% |       28834      2.77%     24.67% |       29445      2.82%     27.49% |       30151      2.89%     30.38% |       29754      2.85%     33.24% |       32319      3.10%     36.34% |       30622      2.94%     39.28% |       30276      2.90%     42.18% |       30066      2.88%     45.06% |       29361      2.82%     47.88% |       29963      2.87%     50.75% |       31186      2.99%     53.75% |       30048      2.88%     56.63% |       30686      2.94%     59.57% |       31391      3.01%     62.58% |       31842      3.05%     65.64% |       36757      3.53%     69.16% |       31009      2.97%     72.14% |       30979      2.97%     75.11% |       30990      2.97%     78.08% |       30971      2.97%     81.05% |       30891      2.96%     84.01% |       30604      2.94%     86.95% |       32437      3.11%     90.06% |       31881      3.06%     93.12% |       33878      3.25%     96.37% |       37855      3.63%    100.00%
system.ruby.L2Cache_Controller.MT_MB.Exclusive_Unblock::total      1042531                      
system.ruby.L2Cache_Controller.MT_IIB.WB_Data |          78     34.67%     34.67% |           1      0.44%     35.11% |           0      0.00%     35.11% |           3      1.33%     36.44% |           3      1.33%     37.78% |           3      1.33%     39.11% |           4      1.78%     40.89% |           3      1.33%     42.22% |           5      2.22%     44.44% |           3      1.33%     45.78% |           2      0.89%     46.67% |           2      0.89%     47.56% |           3      1.33%     48.89% |           2      0.89%     49.78% |           4      1.78%     51.56% |           3      1.33%     52.89% |          77     34.22%     87.11% |           0      0.00%     87.11% |           1      0.44%     87.56% |           0      0.00%     87.56% |           1      0.44%     88.00% |           0      0.00%     88.00% |           1      0.44%     88.44% |           2      0.89%     89.33% |           3      1.33%     90.67% |           5      2.22%     92.89% |           3      1.33%     94.22% |           4      1.78%     96.00% |           3      1.33%     97.33% |           2      0.89%     98.22% |           2      0.89%     99.11% |           2      0.89%    100.00%
system.ruby.L2Cache_Controller.MT_IIB.WB_Data::total          225                      
system.ruby.L2Cache_Controller.MT_IIB.WB_Data_clean |           8     22.22%     22.22% |           0      0.00%     22.22% |           0      0.00%     22.22% |          14     38.89%     61.11% |           0      0.00%     61.11% |           0      0.00%     61.11% |           0      0.00%     61.11% |           0      0.00%     61.11% |           0      0.00%     61.11% |           0      0.00%     61.11% |           0      0.00%     61.11% |           0      0.00%     61.11% |           0      0.00%     61.11% |           0      0.00%     61.11% |           0      0.00%     61.11% |           0      0.00%     61.11% |           0      0.00%     61.11% |           0      0.00%     61.11% |           0      0.00%     61.11% |          12     33.33%     94.44% |           0      0.00%     94.44% |           0      0.00%     94.44% |           0      0.00%     94.44% |           0      0.00%     94.44% |           0      0.00%     94.44% |           0      0.00%     94.44% |           0      0.00%     94.44% |           2      5.56%    100.00% |           0      0.00%    100.00% |           0      0.00%    100.00% |           0      0.00%    100.00% |           0      0.00%    100.00%
system.ruby.L2Cache_Controller.MT_IIB.WB_Data_clean::total           36                      
system.ruby.L2Cache_Controller.MT_IIB.Unblock |           5     33.33%     33.33% |           0      0.00%     33.33% |           0      0.00%     33.33% |           0      0.00%     33.33% |           0      0.00%     33.33% |           0      0.00%     33.33% |           0      0.00%     33.33% |           0      0.00%     33.33% |           0      0.00%     33.33% |           0      0.00%     33.33% |           0      0.00%     33.33% |           0      0.00%     33.33% |           0      0.00%     33.33% |           1      6.67%     40.00% |           0      0.00%     40.00% |           0      0.00%     40.00% |           7     46.67%     86.67% |           0      0.00%     86.67% |           0      0.00%     86.67% |           0      0.00%     86.67% |           0      0.00%     86.67% |           0      0.00%     86.67% |           0      0.00%     86.67% |           0      0.00%     86.67% |           0      0.00%     86.67% |           0      0.00%     86.67% |           1      6.67%     93.33% |           1      6.67%    100.00% |           0      0.00%    100.00% |           0      0.00%    100.00% |           0      0.00%    100.00% |           0      0.00%    100.00%
system.ruby.L2Cache_Controller.MT_IIB.Unblock::total           15                      
system.ruby.L2Cache_Controller.MT_IB.WB_Data |           5     33.33%     33.33% |           0      0.00%     33.33% |           0      0.00%     33.33% |           0      0.00%     33.33% |           0      0.00%     33.33% |           0      0.00%     33.33% |           0      0.00%     33.33% |           0      0.00%     33.33% |           0      0.00%     33.33% |           0      0.00%     33.33% |           0      0.00%     33.33% |           0      0.00%     33.33% |           0      0.00%     33.33% |           1      6.67%     40.00% |           0      0.00%     40.00% |           0      0.00%     40.00% |           7     46.67%     86.67% |           0      0.00%     86.67% |           0      0.00%     86.67% |           0      0.00%     86.67% |           0      0.00%     86.67% |           0      0.00%     86.67% |           0      0.00%     86.67% |           0      0.00%     86.67% |           0      0.00%     86.67% |           0      0.00%     86.67% |           1      6.67%     93.33% |           1      6.67%    100.00% |           0      0.00%    100.00% |           0      0.00%    100.00% |           0      0.00%    100.00% |           0      0.00%    100.00%
system.ruby.L2Cache_Controller.MT_IB.WB_Data::total           15                      
system.ruby.L2Cache_Controller.MT_SB.Unblock |          86     32.95%     32.95% |           1      0.38%     33.33% |           0      0.00%     33.33% |          17      6.51%     39.85% |           3      1.15%     41.00% |           3      1.15%     42.15% |           4      1.53%     43.68% |           3      1.15%     44.83% |           5      1.92%     46.74% |           3      1.15%     47.89% |           2      0.77%     48.66% |           2      0.77%     49.43% |           3      1.15%     50.57% |           2      0.77%     51.34% |           4      1.53%     52.87% |           3      1.15%     54.02% |          77     29.50%     83.52% |           0      0.00%     83.52% |           1      0.38%     83.91% |          12      4.60%     88.51% |           1      0.38%     88.89% |           0      0.00%     88.89% |           1      0.38%     89.27% |           2      0.77%     90.04% |           3      1.15%     91.19% |           5      1.92%     93.10% |           3      1.15%     94.25% |           6      2.30%     96.55% |           3      1.15%     97.70% |           2      0.77%     98.47% |           2      0.77%     99.23% |           2      0.77%    100.00%
system.ruby.L2Cache_Controller.MT_SB.Unblock::total          261                      
system.ruby.SimicsNetworkPortInterface_Controller.MessageSend |       64879     17.81%     17.81% |      182171     50.00%     67.81% |        4160      1.14%     68.95% |        5073      1.39%     70.34% |        3953      1.08%     71.43% |        5157      1.42%     72.84% |        4915      1.35%     74.19% |        4089      1.12%     75.31% |        3559      0.98%     76.29% |        3623      0.99%     77.28% |        3665      1.01%     78.29% |        3759      1.03%     79.32% |        3850      1.06%     80.38% |        3798      1.04%     81.42% |        3711      1.02%     82.44% |        3613      0.99%     83.43% |        3774      1.04%     84.47% |        3982      1.09%     85.56% |        3878      1.06%     86.62% |        3773      1.04%     87.66% |        3551      0.97%     88.63% |        3576      0.98%     89.62% |        3752      1.03%     90.65% |        3361      0.92%     91.57% |        3610      0.99%     92.56% |        3796      1.04%     93.60% |        3613      0.99%     94.59% |        3490      0.96%     95.55% |        3765      1.03%     96.58% |        3875      1.06%     97.65% |        4403      1.21%     98.86% |        4168      1.14%    100.00%
system.ruby.SimicsNetworkPortInterface_Controller.MessageSend::total       364342                      
system.ruby.SimicsNetworkPortInterface_Controller.MessageRecv |       64879     17.81%     17.81% |      182171     50.00%     67.81% |        4160      1.14%     68.95% |        5073      1.39%     70.34% |        3953      1.08%     71.43% |        5157      1.42%     72.84% |        4915      1.35%     74.19% |        4089      1.12%     75.31% |        3559      0.98%     76.29% |        3623      0.99%     77.28% |        3665      1.01%     78.29% |        3759      1.03%     79.32% |        3850      1.06%     80.38% |        3798      1.04%     81.42% |        3711      1.02%     82.44% |        3613      0.99%     83.43% |        3774      1.04%     84.47% |        3982      1.09%     85.56% |        3878      1.06%     86.62% |        3773      1.04%     87.66% |        3551      0.97%     88.63% |        3576      0.98%     89.62% |        3752      1.03%     90.65% |        3361      0.92%     91.57% |        3610      0.99%     92.56% |        3796      1.04%     93.60% |        3613      0.99%     94.59% |        3490      0.96%     95.55% |        3765      1.03%     96.58% |        3875      1.06%     97.65% |        4403      1.21%     98.86% |        4168      1.14%    100.00%
system.ruby.SimicsNetworkPortInterface_Controller.MessageRecv::total       364342                      
system.ruby.SimicsNetworkPortInterface_Controller.A.MessageSend |       64879     17.81%     17.81% |      182171     50.00%     67.81% |        4160      1.14%     68.95% |        5073      1.39%     70.34% |        3953      1.08%     71.43% |        5157      1.42%     72.84% |        4915      1.35%     74.19% |        4089      1.12%     75.31% |        3559      0.98%     76.29% |        3623      0.99%     77.28% |        3665      1.01%     78.29% |        3759      1.03%     79.32% |        3850      1.06%     80.38% |        3798      1.04%     81.42% |        3711      1.02%     82.44% |        3613      0.99%     83.43% |        3774      1.04%     84.47% |        3982      1.09%     85.56% |        3878      1.06%     86.62% |        3773      1.04%     87.66% |        3551      0.97%     88.63% |        3576      0.98%     89.62% |        3752      1.03%     90.65% |        3361      0.92%     91.57% |        3610      0.99%     92.56% |        3796      1.04%     93.60% |        3613      0.99%     94.59% |        3490      0.96%     95.55% |        3765      1.03%     96.58% |        3875      1.06%     97.65% |        4403      1.21%     98.86% |        4168      1.14%    100.00%
system.ruby.SimicsNetworkPortInterface_Controller.A.MessageSend::total       364342                      
system.ruby.SimicsNetworkPortInterface_Controller.A.MessageRecv |       64879     17.81%     17.81% |      182171     50.00%     67.81% |        4160      1.14%     68.95% |        5073      1.39%     70.34% |        3953      1.08%     71.43% |        5157      1.42%     72.84% |        4915      1.35%     74.19% |        4089      1.12%     75.31% |        3559      0.98%     76.29% |        3623      0.99%     77.28% |        3665      1.01%     78.29% |        3759      1.03%     79.32% |        3850      1.06%     80.38% |        3798      1.04%     81.42% |        3711      1.02%     82.44% |        3613      0.99%     83.43% |        3774      1.04%     84.47% |        3982      1.09%     85.56% |        3878      1.06%     86.62% |        3773      1.04%     87.66% |        3551      0.97%     88.63% |        3576      0.98%     89.62% |        3752      1.03%     90.65% |        3361      0.92%     91.57% |        3610      0.99%     92.56% |        3796      1.04%     93.60% |        3613      0.99%     94.59% |        3490      0.96%     95.55% |        3765      1.03%     96.58% |        3875      1.06%     97.65% |        4403      1.21%     98.86% |        4168      1.14%    100.00%
system.ruby.SimicsNetworkPortInterface_Controller.A.MessageRecv::total       364342                      
system.switch_cpus.kern.inst.arm                    0                       # number of arm instructions executed
system.switch_cpus.kern.inst.quiesce                0                       # number of quiesce instructions executed

---------- End Simulation Statistics   ----------
