
---------- Begin Simulation Statistics ----------
sim_seconds                                  0.122750                       # Number of seconds simulated
sim_ticks                                122749960000                       # Number of ticks simulated
final_tick                               5298918038500                       # Number of ticks from beginning of simulation (restored from checkpoints and never reset)
sim_freq                                 1000000000000                       # Frequency of simulated ticks
host_inst_rate                                  23382                       # Simulator instruction rate (inst/s)
host_op_rate                                    41065                       # Simulator op (including micro ops) rate (op/s)
host_tick_rate                               49143789                       # Simulator tick rate (ticks/s)
host_mem_usage                                6329100                       # Number of bytes of host memory used
host_seconds                                  2497.77                       # Real time elapsed on the host
sim_insts                                    58402597                       # Number of instructions simulated
sim_ops                                     102570122                       # Number of ops (including micro ops) simulated
system.voltage_domain.voltage                       1                       # Voltage in Volts
system.clk_domain.clock                           500                       # Clock period in ticks
system.mem_ctrls0.bytes_read::ruby.dir_cntrl0     40707008                       # Number of bytes read from this memory
system.mem_ctrls0.bytes_read::total          40707008                       # Number of bytes read from this memory
system.mem_ctrls0.bytes_written::ruby.dir_cntrl0     19213376                       # Number of bytes written to this memory
system.mem_ctrls0.bytes_written::total       19213376                       # Number of bytes written to this memory
system.mem_ctrls0.num_reads::ruby.dir_cntrl0       636047                       # Number of read requests responded to by this memory
system.mem_ctrls0.num_reads::total             636047                       # Number of read requests responded to by this memory
system.mem_ctrls0.num_writes::ruby.dir_cntrl0       300209                       # Number of write requests responded to by this memory
system.mem_ctrls0.num_writes::total            300209                       # Number of write requests responded to by this memory
system.mem_ctrls0.bw_read::ruby.dir_cntrl0    331625428                       # Total read bandwidth from this memory (bytes/s)
system.mem_ctrls0.bw_read::total            331625428                       # Total read bandwidth from this memory (bytes/s)
system.mem_ctrls0.bw_write::ruby.dir_cntrl0    156524499                       # Write bandwidth from this memory (bytes/s)
system.mem_ctrls0.bw_write::total           156524499                       # Write bandwidth from this memory (bytes/s)
system.mem_ctrls0.bw_total::ruby.dir_cntrl0    488149927                       # Total bandwidth to/from this memory (bytes/s)
system.mem_ctrls0.bw_total::total           488149927                       # Total bandwidth to/from this memory (bytes/s)
system.mem_ctrls0.readReqs                     636047                       # Number of read requests accepted
system.mem_ctrls0.writeReqs                    300209                       # Number of write requests accepted
system.mem_ctrls0.readBursts                   636047                       # Number of DRAM read bursts, including those serviced by the write queue
system.mem_ctrls0.writeBursts                  300209                       # Number of DRAM write bursts, including those merged in the write queue
system.mem_ctrls0.bytesReadDRAM              40678848                       # Total number of bytes read from DRAM
system.mem_ctrls0.bytesReadWrQ                  28160                       # Total number of bytes read from write queue
system.mem_ctrls0.bytesWritten               19213312                       # Total number of bytes written to DRAM
system.mem_ctrls0.bytesReadSys               40707008                       # Total read bytes from the system interface side
system.mem_ctrls0.bytesWrittenSys            19213376                       # Total written bytes from the system interface side
system.mem_ctrls0.servicedByWrQ                   440                       # Number of DRAM read bursts serviced by the write queue
system.mem_ctrls0.mergedWrBursts                    0                       # Number of DRAM write bursts merged with an existing one
system.mem_ctrls0.neitherReadNorWriteReqs            0                       # Number of requests that are neither read nor write
system.mem_ctrls0.perBankRdBursts::0            39545                       # Per bank write bursts
system.mem_ctrls0.perBankRdBursts::1            39540                       # Per bank write bursts
system.mem_ctrls0.perBankRdBursts::2            39690                       # Per bank write bursts
system.mem_ctrls0.perBankRdBursts::3            40285                       # Per bank write bursts
system.mem_ctrls0.perBankRdBursts::4            39216                       # Per bank write bursts
system.mem_ctrls0.perBankRdBursts::5            39509                       # Per bank write bursts
system.mem_ctrls0.perBankRdBursts::6            40630                       # Per bank write bursts
system.mem_ctrls0.perBankRdBursts::7            40323                       # Per bank write bursts
system.mem_ctrls0.perBankRdBursts::8            39126                       # Per bank write bursts
system.mem_ctrls0.perBankRdBursts::9            39280                       # Per bank write bursts
system.mem_ctrls0.perBankRdBursts::10           39553                       # Per bank write bursts
system.mem_ctrls0.perBankRdBursts::11           40423                       # Per bank write bursts
system.mem_ctrls0.perBankRdBursts::12           39039                       # Per bank write bursts
system.mem_ctrls0.perBankRdBursts::13           39201                       # Per bank write bursts
system.mem_ctrls0.perBankRdBursts::14           40153                       # Per bank write bursts
system.mem_ctrls0.perBankRdBursts::15           40094                       # Per bank write bursts
system.mem_ctrls0.perBankWrBursts::0            18599                       # Per bank write bursts
system.mem_ctrls0.perBankWrBursts::1            18727                       # Per bank write bursts
system.mem_ctrls0.perBankWrBursts::2            18938                       # Per bank write bursts
system.mem_ctrls0.perBankWrBursts::3            18961                       # Per bank write bursts
system.mem_ctrls0.perBankWrBursts::4            18661                       # Per bank write bursts
system.mem_ctrls0.perBankWrBursts::5            18792                       # Per bank write bursts
system.mem_ctrls0.perBankWrBursts::6            19110                       # Per bank write bursts
system.mem_ctrls0.perBankWrBursts::7            18987                       # Per bank write bursts
system.mem_ctrls0.perBankWrBursts::8            18443                       # Per bank write bursts
system.mem_ctrls0.perBankWrBursts::9            18661                       # Per bank write bursts
system.mem_ctrls0.perBankWrBursts::10           18773                       # Per bank write bursts
system.mem_ctrls0.perBankWrBursts::11           18820                       # Per bank write bursts
system.mem_ctrls0.perBankWrBursts::12           18456                       # Per bank write bursts
system.mem_ctrls0.perBankWrBursts::13           18611                       # Per bank write bursts
system.mem_ctrls0.perBankWrBursts::14           18965                       # Per bank write bursts
system.mem_ctrls0.perBankWrBursts::15           18704                       # Per bank write bursts
system.mem_ctrls0.numRdRetry                     3515                       # Number of times read queue was full causing retry
system.mem_ctrls0.numWrRetry                     5793                       # Number of times write queue was full causing retry
system.mem_ctrls0.totGap                 122749460000                       # Total gap between requests
system.mem_ctrls0.readPktSize::0                    0                       # Read request sizes (log2)
system.mem_ctrls0.readPktSize::1                    0                       # Read request sizes (log2)
system.mem_ctrls0.readPktSize::2                    0                       # Read request sizes (log2)
system.mem_ctrls0.readPktSize::3                    0                       # Read request sizes (log2)
system.mem_ctrls0.readPktSize::4                    0                       # Read request sizes (log2)
system.mem_ctrls0.readPktSize::5                    0                       # Read request sizes (log2)
system.mem_ctrls0.readPktSize::6               636047                       # Read request sizes (log2)
system.mem_ctrls0.writePktSize::0                   0                       # Write request sizes (log2)
system.mem_ctrls0.writePktSize::1                   0                       # Write request sizes (log2)
system.mem_ctrls0.writePktSize::2                   0                       # Write request sizes (log2)
system.mem_ctrls0.writePktSize::3                   0                       # Write request sizes (log2)
system.mem_ctrls0.writePktSize::4                   0                       # Write request sizes (log2)
system.mem_ctrls0.writePktSize::5                   0                       # Write request sizes (log2)
system.mem_ctrls0.writePktSize::6              300209                       # Write request sizes (log2)
system.mem_ctrls0.rdQLenPdf::0                 210025                       # What read queue length does an incoming req see
system.mem_ctrls0.rdQLenPdf::1                  54734                       # What read queue length does an incoming req see
system.mem_ctrls0.rdQLenPdf::2                  46447                       # What read queue length does an incoming req see
system.mem_ctrls0.rdQLenPdf::3                  41470                       # What read queue length does an incoming req see
system.mem_ctrls0.rdQLenPdf::4                  36826                       # What read queue length does an incoming req see
system.mem_ctrls0.rdQLenPdf::5                  32940                       # What read queue length does an incoming req see
system.mem_ctrls0.rdQLenPdf::6                  29328                       # What read queue length does an incoming req see
system.mem_ctrls0.rdQLenPdf::7                  25684                       # What read queue length does an incoming req see
system.mem_ctrls0.rdQLenPdf::8                  21821                       # What read queue length does an incoming req see
system.mem_ctrls0.rdQLenPdf::9                  18953                       # What read queue length does an incoming req see
system.mem_ctrls0.rdQLenPdf::10                 16374                       # What read queue length does an incoming req see
system.mem_ctrls0.rdQLenPdf::11                 14064                       # What read queue length does an incoming req see
system.mem_ctrls0.rdQLenPdf::12                 12096                       # What read queue length does an incoming req see
system.mem_ctrls0.rdQLenPdf::13                 10373                       # What read queue length does an incoming req see
system.mem_ctrls0.rdQLenPdf::14                  8838                       # What read queue length does an incoming req see
system.mem_ctrls0.rdQLenPdf::15                  7747                       # What read queue length does an incoming req see
system.mem_ctrls0.rdQLenPdf::16                  6649                       # What read queue length does an incoming req see
system.mem_ctrls0.rdQLenPdf::17                  5746                       # What read queue length does an incoming req see
system.mem_ctrls0.rdQLenPdf::18                  4891                       # What read queue length does an incoming req see
system.mem_ctrls0.rdQLenPdf::19                  4310                       # What read queue length does an incoming req see
system.mem_ctrls0.rdQLenPdf::20                  3705                       # What read queue length does an incoming req see
system.mem_ctrls0.rdQLenPdf::21                  3124                       # What read queue length does an incoming req see
system.mem_ctrls0.rdQLenPdf::22                  2693                       # What read queue length does an incoming req see
system.mem_ctrls0.rdQLenPdf::23                  2318                       # What read queue length does an incoming req see
system.mem_ctrls0.rdQLenPdf::24                  2097                       # What read queue length does an incoming req see
system.mem_ctrls0.rdQLenPdf::25                  1806                       # What read queue length does an incoming req see
system.mem_ctrls0.rdQLenPdf::26                  1592                       # What read queue length does an incoming req see
system.mem_ctrls0.rdQLenPdf::27                  1404                       # What read queue length does an incoming req see
system.mem_ctrls0.rdQLenPdf::28                  1231                       # What read queue length does an incoming req see
system.mem_ctrls0.rdQLenPdf::29                  1093                       # What read queue length does an incoming req see
system.mem_ctrls0.rdQLenPdf::30                   906                       # What read queue length does an incoming req see
system.mem_ctrls0.rdQLenPdf::31                  4322                       # What read queue length does an incoming req see
system.mem_ctrls0.wrQLenPdf::0                  47792                       # What write queue length does an incoming req see
system.mem_ctrls0.wrQLenPdf::1                  53752                       # What write queue length does an incoming req see
system.mem_ctrls0.wrQLenPdf::2                  56206                       # What write queue length does an incoming req see
system.mem_ctrls0.wrQLenPdf::3                  56541                       # What write queue length does an incoming req see
system.mem_ctrls0.wrQLenPdf::4                  55708                       # What write queue length does an incoming req see
system.mem_ctrls0.wrQLenPdf::5                  11066                       # What write queue length does an incoming req see
system.mem_ctrls0.wrQLenPdf::6                   8408                       # What write queue length does an incoming req see
system.mem_ctrls0.wrQLenPdf::7                  10736                       # What write queue length does an incoming req see
system.mem_ctrls0.bytesPerActivate::samples       303513                       # Bytes accessed per row activation
system.mem_ctrls0.bytesPerActivate::mean   197.326428                       # Bytes accessed per row activation
system.mem_ctrls0.bytesPerActivate::gmean   152.001067                       # Bytes accessed per row activation
system.mem_ctrls0.bytesPerActivate::stdev   147.325514                       # Bytes accessed per row activation
system.mem_ctrls0.bytesPerActivate::0-127        99912     32.92%     32.92% # Bytes accessed per row activation
system.mem_ctrls0.bytesPerActivate::128-255        95429     31.44%     64.36% # Bytes accessed per row activation
system.mem_ctrls0.bytesPerActivate::256-383        72396     23.85%     88.21% # Bytes accessed per row activation
system.mem_ctrls0.bytesPerActivate::384-511        17829      5.87%     94.09% # Bytes accessed per row activation
system.mem_ctrls0.bytesPerActivate::512-639        13412      4.42%     98.51% # Bytes accessed per row activation
system.mem_ctrls0.bytesPerActivate::640-767         2343      0.77%     99.28% # Bytes accessed per row activation
system.mem_ctrls0.bytesPerActivate::768-895         1152      0.38%     99.66% # Bytes accessed per row activation
system.mem_ctrls0.bytesPerActivate::896-1023          662      0.22%     99.88% # Bytes accessed per row activation
system.mem_ctrls0.bytesPerActivate::1024-1151          378      0.12%    100.00% # Bytes accessed per row activation
system.mem_ctrls0.bytesPerActivate::total       303513                       # Bytes accessed per row activation
system.mem_ctrls0.rdPerTurnAround::samples        48850                       # Reads before turning the bus around for writes
system.mem_ctrls0.rdPerTurnAround::mean     13.011361                       # Reads before turning the bus around for writes
system.mem_ctrls0.rdPerTurnAround::stdev    29.574494                       # Reads before turning the bus around for writes
system.mem_ctrls0.rdPerTurnAround::0-127        48511     99.31%     99.31% # Reads before turning the bus around for writes
system.mem_ctrls0.rdPerTurnAround::128-255          286      0.59%     99.89% # Reads before turning the bus around for writes
system.mem_ctrls0.rdPerTurnAround::256-383           36      0.07%     99.97% # Reads before turning the bus around for writes
system.mem_ctrls0.rdPerTurnAround::384-511            9      0.02%     99.98% # Reads before turning the bus around for writes
system.mem_ctrls0.rdPerTurnAround::512-639            2      0.00%     99.99% # Reads before turning the bus around for writes
system.mem_ctrls0.rdPerTurnAround::640-767            1      0.00%     99.99% # Reads before turning the bus around for writes
system.mem_ctrls0.rdPerTurnAround::768-895            2      0.00%     99.99% # Reads before turning the bus around for writes
system.mem_ctrls0.rdPerTurnAround::1024-1151            2      0.00%    100.00% # Reads before turning the bus around for writes
system.mem_ctrls0.rdPerTurnAround::3968-4095            1      0.00%    100.00% # Reads before turning the bus around for writes
system.mem_ctrls0.rdPerTurnAround::total        48850                       # Reads before turning the bus around for writes
system.mem_ctrls0.wrPerTurnAround::samples        48850                       # Writes before turning the bus around for reads
system.mem_ctrls0.wrPerTurnAround::mean      6.145507                       # Writes before turning the bus around for reads
system.mem_ctrls0.wrPerTurnAround::gmean     5.818056                       # Writes before turning the bus around for reads
system.mem_ctrls0.wrPerTurnAround::stdev     2.512740                       # Writes before turning the bus around for reads
system.mem_ctrls0.wrPerTurnAround::4-7          41113     84.16%     84.16% # Writes before turning the bus around for reads
system.mem_ctrls0.wrPerTurnAround::8-11          4740      9.70%     93.86% # Writes before turning the bus around for reads
system.mem_ctrls0.wrPerTurnAround::12-15         1698      3.48%     97.34% # Writes before turning the bus around for reads
system.mem_ctrls0.wrPerTurnAround::16-19         1299      2.66%    100.00% # Writes before turning the bus around for reads
system.mem_ctrls0.wrPerTurnAround::total        48850                       # Writes before turning the bus around for reads
system.mem_ctrls0.totQLat                 42277623663                       # Total ticks spent queuing
system.mem_ctrls0.totMemAccLat            54195254913                       # Total ticks spent from burst creation until serviced by the DRAM
system.mem_ctrls0.totBusLat                3178035000                       # Total ticks spent in databus transfers
system.mem_ctrls0.avgQLat                    66515.35                       # Average queueing delay per DRAM burst
system.mem_ctrls0.avgBusLat                   5000.00                       # Average bus latency per DRAM burst
system.mem_ctrls0.avgMemAccLat               85265.35                       # Average memory access latency per DRAM burst
system.mem_ctrls0.avgRdBW                      331.40                       # Average DRAM read bandwidth in MiByte/s
system.mem_ctrls0.avgWrBW                      156.52                       # Average achieved write bandwidth in MiByte/s
system.mem_ctrls0.avgRdBWSys                   331.63                       # Average system read bandwidth in MiByte/s
system.mem_ctrls0.avgWrBWSys                   156.52                       # Average system write bandwidth in MiByte/s
system.mem_ctrls0.peakBW                     12800.00                       # Theoretical peak bandwidth in MiByte/s
system.mem_ctrls0.busUtil                        3.81                       # Data bus utilization in percentage
system.mem_ctrls0.busUtilRead                    2.59                       # Data bus utilization in percentage for reads
system.mem_ctrls0.busUtilWrite                   1.22                       # Data bus utilization in percentage for writes
system.mem_ctrls0.avgRdQLen                      1.46                       # Average read queue length when enqueuing
system.mem_ctrls0.avgWrQLen                      3.02                       # Average write queue length when enqueuing
system.mem_ctrls0.readRowHits                  465267                       # Number of row buffer hits during reads
system.mem_ctrls0.writeRowHits                 167023                       # Number of row buffer hits during writes
system.mem_ctrls0.readRowHitRate                73.20                       # Row buffer hit rate for reads
system.mem_ctrls0.writeRowHitRate               55.64                       # Row buffer hit rate for writes
system.mem_ctrls0.avgGap                    131106.73                       # Average gap between requests
system.mem_ctrls0.pageHitRate                   67.57                       # Row buffer hit rate, read and write combined
system.mem_ctrls0.memoryStateTime::IDLE   20281026250                       # Time in different power states
system.mem_ctrls0.memoryStateTime::REF     4098640000                       # Time in different power states
system.mem_ctrls0.memoryStateTime::PRE_PDN            0                       # Time in different power states
system.mem_ctrls0.memoryStateTime::ACT    98363052500                       # Time in different power states
system.mem_ctrls0.memoryStateTime::ACT_PDN            0                       # Time in different power states
system.mem_ctrls0.actEnergy::0             1154291040                       # Energy for activate commands per rank (pJ)
system.mem_ctrls0.actEnergy::1             1140055560                       # Energy for activate commands per rank (pJ)
system.mem_ctrls0.preEnergy::0              629821500                       # Energy for precharge commands per rank (pJ)
system.mem_ctrls0.preEnergy::1              622054125                       # Energy for precharge commands per rank (pJ)
system.mem_ctrls0.readEnergy::0            2485867800                       # Energy for read commands per rank (pJ)
system.mem_ctrls0.readEnergy::1            2471297400                       # Energy for read commands per rank (pJ)
system.mem_ctrls0.writeEnergy::0            976950720                       # Energy for write commands per rank (pJ)
system.mem_ctrls0.writeEnergy::1            968267520                       # Energy for write commands per rank (pJ)
system.mem_ctrls0.refreshEnergy::0         8016939840                       # Energy for refresh commands per rank (pJ)
system.mem_ctrls0.refreshEnergy::1         8016939840                       # Energy for refresh commands per rank (pJ)
system.mem_ctrls0.actBackEnergy::0        51362044785                       # Energy for active background per rank (pJ)
system.mem_ctrls0.actBackEnergy::1        50888544075                       # Energy for active background per rank (pJ)
system.mem_ctrls0.preBackEnergy::0        28591197750                       # Energy for precharge background per rank (pJ)
system.mem_ctrls0.preBackEnergy::1        29006549250                       # Energy for precharge background per rank (pJ)
system.mem_ctrls0.totalEnergy::0          93217113435                       # Total energy per rank (pJ)
system.mem_ctrls0.totalEnergy::1          93113707770                       # Total energy per rank (pJ)
system.mem_ctrls0.averagePower::0          759.451353                       # Core power per rank (mW)
system.mem_ctrls0.averagePower::1          758.608895                       # Core power per rank (mW)
system.mem_ctrls1.bytes_read::ruby.dir_cntrl1     39909376                       # Number of bytes read from this memory
system.mem_ctrls1.bytes_read::total          39909376                       # Number of bytes read from this memory
system.mem_ctrls1.bytes_written::ruby.dir_cntrl1     18608896                       # Number of bytes written to this memory
system.mem_ctrls1.bytes_written::total       18608896                       # Number of bytes written to this memory
system.mem_ctrls1.num_reads::ruby.dir_cntrl1       623584                       # Number of read requests responded to by this memory
system.mem_ctrls1.num_reads::total             623584                       # Number of read requests responded to by this memory
system.mem_ctrls1.num_writes::ruby.dir_cntrl1       290764                       # Number of write requests responded to by this memory
system.mem_ctrls1.num_writes::total            290764                       # Number of write requests responded to by this memory
system.mem_ctrls1.bw_read::ruby.dir_cntrl1    325127405                       # Total read bandwidth from this memory (bytes/s)
system.mem_ctrls1.bw_read::total            325127405                       # Total read bandwidth from this memory (bytes/s)
system.mem_ctrls1.bw_write::ruby.dir_cntrl1    151600017                       # Write bandwidth from this memory (bytes/s)
system.mem_ctrls1.bw_write::total           151600017                       # Write bandwidth from this memory (bytes/s)
system.mem_ctrls1.bw_total::ruby.dir_cntrl1    476727422                       # Total bandwidth to/from this memory (bytes/s)
system.mem_ctrls1.bw_total::total           476727422                       # Total bandwidth to/from this memory (bytes/s)
system.mem_ctrls1.readReqs                     623584                       # Number of read requests accepted
system.mem_ctrls1.writeReqs                    290764                       # Number of write requests accepted
system.mem_ctrls1.readBursts                   623584                       # Number of DRAM read bursts, including those serviced by the write queue
system.mem_ctrls1.writeBursts                  290764                       # Number of DRAM write bursts, including those merged in the write queue
system.mem_ctrls1.bytesReadDRAM              39883904                       # Total number of bytes read from DRAM
system.mem_ctrls1.bytesReadWrQ                  25472                       # Total number of bytes read from write queue
system.mem_ctrls1.bytesWritten               18608704                       # Total number of bytes written to DRAM
system.mem_ctrls1.bytesReadSys               39909376                       # Total read bytes from the system interface side
system.mem_ctrls1.bytesWrittenSys            18608896                       # Total written bytes from the system interface side
system.mem_ctrls1.servicedByWrQ                   398                       # Number of DRAM read bursts serviced by the write queue
system.mem_ctrls1.mergedWrBursts                    0                       # Number of DRAM write bursts merged with an existing one
system.mem_ctrls1.neitherReadNorWriteReqs            0                       # Number of requests that are neither read nor write
system.mem_ctrls1.perBankRdBursts::0            38825                       # Per bank write bursts
system.mem_ctrls1.perBankRdBursts::1            38964                       # Per bank write bursts
system.mem_ctrls1.perBankRdBursts::2            38836                       # Per bank write bursts
system.mem_ctrls1.perBankRdBursts::3            39203                       # Per bank write bursts
system.mem_ctrls1.perBankRdBursts::4            38689                       # Per bank write bursts
system.mem_ctrls1.perBankRdBursts::5            38600                       # Per bank write bursts
system.mem_ctrls1.perBankRdBursts::6            40043                       # Per bank write bursts
system.mem_ctrls1.perBankRdBursts::7            39528                       # Per bank write bursts
system.mem_ctrls1.perBankRdBursts::8            38483                       # Per bank write bursts
system.mem_ctrls1.perBankRdBursts::9            38618                       # Per bank write bursts
system.mem_ctrls1.perBankRdBursts::10           38793                       # Per bank write bursts
system.mem_ctrls1.perBankRdBursts::11           39232                       # Per bank write bursts
system.mem_ctrls1.perBankRdBursts::12           38548                       # Per bank write bursts
system.mem_ctrls1.perBankRdBursts::13           38236                       # Per bank write bursts
system.mem_ctrls1.perBankRdBursts::14           39236                       # Per bank write bursts
system.mem_ctrls1.perBankRdBursts::15           39352                       # Per bank write bursts
system.mem_ctrls1.perBankWrBursts::0            18026                       # Per bank write bursts
system.mem_ctrls1.perBankWrBursts::1            18141                       # Per bank write bursts
system.mem_ctrls1.perBankWrBursts::2            18351                       # Per bank write bursts
system.mem_ctrls1.perBankWrBursts::3            18286                       # Per bank write bursts
system.mem_ctrls1.perBankWrBursts::4            18122                       # Per bank write bursts
system.mem_ctrls1.perBankWrBursts::5            18164                       # Per bank write bursts
system.mem_ctrls1.perBankWrBursts::6            18561                       # Per bank write bursts
system.mem_ctrls1.perBankWrBursts::7            18420                       # Per bank write bursts
system.mem_ctrls1.perBankWrBursts::8            17899                       # Per bank write bursts
system.mem_ctrls1.perBankWrBursts::9            18072                       # Per bank write bursts
system.mem_ctrls1.perBankWrBursts::10           18156                       # Per bank write bursts
system.mem_ctrls1.perBankWrBursts::11           18150                       # Per bank write bursts
system.mem_ctrls1.perBankWrBursts::12           17940                       # Per bank write bursts
system.mem_ctrls1.perBankWrBursts::13           17928                       # Per bank write bursts
system.mem_ctrls1.perBankWrBursts::14           18337                       # Per bank write bursts
system.mem_ctrls1.perBankWrBursts::15           18208                       # Per bank write bursts
system.mem_ctrls1.numRdRetry                     3371                       # Number of times read queue was full causing retry
system.mem_ctrls1.numWrRetry                     5645                       # Number of times write queue was full causing retry
system.mem_ctrls1.totGap                 122749208000                       # Total gap between requests
system.mem_ctrls1.readPktSize::0                    0                       # Read request sizes (log2)
system.mem_ctrls1.readPktSize::1                    0                       # Read request sizes (log2)
system.mem_ctrls1.readPktSize::2                    0                       # Read request sizes (log2)
system.mem_ctrls1.readPktSize::3                    0                       # Read request sizes (log2)
system.mem_ctrls1.readPktSize::4                    0                       # Read request sizes (log2)
system.mem_ctrls1.readPktSize::5                    0                       # Read request sizes (log2)
system.mem_ctrls1.readPktSize::6               623584                       # Read request sizes (log2)
system.mem_ctrls1.writePktSize::0                   0                       # Write request sizes (log2)
system.mem_ctrls1.writePktSize::1                   0                       # Write request sizes (log2)
system.mem_ctrls1.writePktSize::2                   0                       # Write request sizes (log2)
system.mem_ctrls1.writePktSize::3                   0                       # Write request sizes (log2)
system.mem_ctrls1.writePktSize::4                   0                       # Write request sizes (log2)
system.mem_ctrls1.writePktSize::5                   0                       # Write request sizes (log2)
system.mem_ctrls1.writePktSize::6              290764                       # Write request sizes (log2)
system.mem_ctrls1.rdQLenPdf::0                 202343                       # What read queue length does an incoming req see
system.mem_ctrls1.rdQLenPdf::1                  53836                       # What read queue length does an incoming req see
system.mem_ctrls1.rdQLenPdf::2                  46522                       # What read queue length does an incoming req see
system.mem_ctrls1.rdQLenPdf::3                  41426                       # What read queue length does an incoming req see
system.mem_ctrls1.rdQLenPdf::4                  36472                       # What read queue length does an incoming req see
system.mem_ctrls1.rdQLenPdf::5                  32664                       # What read queue length does an incoming req see
system.mem_ctrls1.rdQLenPdf::6                  28716                       # What read queue length does an incoming req see
system.mem_ctrls1.rdQLenPdf::7                  25296                       # What read queue length does an incoming req see
system.mem_ctrls1.rdQLenPdf::8                  21585                       # What read queue length does an incoming req see
system.mem_ctrls1.rdQLenPdf::9                  18749                       # What read queue length does an incoming req see
system.mem_ctrls1.rdQLenPdf::10                 15938                       # What read queue length does an incoming req see
system.mem_ctrls1.rdQLenPdf::11                 13702                       # What read queue length does an incoming req see
system.mem_ctrls1.rdQLenPdf::12                 11718                       # What read queue length does an incoming req see
system.mem_ctrls1.rdQLenPdf::13                 10267                       # What read queue length does an incoming req see
system.mem_ctrls1.rdQLenPdf::14                  8735                       # What read queue length does an incoming req see
system.mem_ctrls1.rdQLenPdf::15                  7475                       # What read queue length does an incoming req see
system.mem_ctrls1.rdQLenPdf::16                  6502                       # What read queue length does an incoming req see
system.mem_ctrls1.rdQLenPdf::17                  5731                       # What read queue length does an incoming req see
system.mem_ctrls1.rdQLenPdf::18                  4804                       # What read queue length does an incoming req see
system.mem_ctrls1.rdQLenPdf::19                  4186                       # What read queue length does an incoming req see
system.mem_ctrls1.rdQLenPdf::20                  3780                       # What read queue length does an incoming req see
system.mem_ctrls1.rdQLenPdf::21                  3247                       # What read queue length does an incoming req see
system.mem_ctrls1.rdQLenPdf::22                  2733                       # What read queue length does an incoming req see
system.mem_ctrls1.rdQLenPdf::23                  2467                       # What read queue length does an incoming req see
system.mem_ctrls1.rdQLenPdf::24                  2105                       # What read queue length does an incoming req see
system.mem_ctrls1.rdQLenPdf::25                  1871                       # What read queue length does an incoming req see
system.mem_ctrls1.rdQLenPdf::26                  1638                       # What read queue length does an incoming req see
system.mem_ctrls1.rdQLenPdf::27                  1408                       # What read queue length does an incoming req see
system.mem_ctrls1.rdQLenPdf::28                  1183                       # What read queue length does an incoming req see
system.mem_ctrls1.rdQLenPdf::29                  1060                       # What read queue length does an incoming req see
system.mem_ctrls1.rdQLenPdf::30                   886                       # What read queue length does an incoming req see
system.mem_ctrls1.rdQLenPdf::31                  4141                       # What read queue length does an incoming req see
system.mem_ctrls1.wrQLenPdf::0                  45947                       # What write queue length does an incoming req see
system.mem_ctrls1.wrQLenPdf::1                  52029                       # What write queue length does an incoming req see
system.mem_ctrls1.wrQLenPdf::2                  54378                       # What write queue length does an incoming req see
system.mem_ctrls1.wrQLenPdf::3                  54644                       # What write queue length does an incoming req see
system.mem_ctrls1.wrQLenPdf::4                  53951                       # What write queue length does an incoming req see
system.mem_ctrls1.wrQLenPdf::5                  10995                       # What write queue length does an incoming req see
system.mem_ctrls1.wrQLenPdf::6                   8238                       # What write queue length does an incoming req see
system.mem_ctrls1.wrQLenPdf::7                  10582                       # What write queue length does an incoming req see
system.mem_ctrls1.bytesPerActivate::samples       290001                       # Bytes accessed per row activation
system.mem_ctrls1.bytesPerActivate::mean   201.694422                       # Bytes accessed per row activation
system.mem_ctrls1.bytesPerActivate::gmean   155.219531                       # Bytes accessed per row activation
system.mem_ctrls1.bytesPerActivate::stdev   149.176961                       # Bytes accessed per row activation
system.mem_ctrls1.bytesPerActivate::0-127        93885     32.37%     32.37% # Bytes accessed per row activation
system.mem_ctrls1.bytesPerActivate::128-255        88449     30.50%     62.87% # Bytes accessed per row activation
system.mem_ctrls1.bytesPerActivate::256-383        72011     24.83%     87.70% # Bytes accessed per row activation
system.mem_ctrls1.bytesPerActivate::384-511        17826      6.15%     93.85% # Bytes accessed per row activation
system.mem_ctrls1.bytesPerActivate::512-639        13220      4.56%     98.41% # Bytes accessed per row activation
system.mem_ctrls1.bytesPerActivate::640-767         2400      0.83%     99.24% # Bytes accessed per row activation
system.mem_ctrls1.bytesPerActivate::768-895         1161      0.40%     99.64% # Bytes accessed per row activation
system.mem_ctrls1.bytesPerActivate::896-1023          683      0.24%     99.87% # Bytes accessed per row activation
system.mem_ctrls1.bytesPerActivate::1024-1151          366      0.13%    100.00% # Bytes accessed per row activation
system.mem_ctrls1.bytesPerActivate::total       290001                       # Bytes accessed per row activation
system.mem_ctrls1.rdPerTurnAround::samples        47047                       # Reads before turning the bus around for writes
system.mem_ctrls1.rdPerTurnAround::mean     13.245924                       # Reads before turning the bus around for writes
system.mem_ctrls1.rdPerTurnAround::stdev    27.211745                       # Reads before turning the bus around for writes
system.mem_ctrls1.rdPerTurnAround::0-127        46714     99.29%     99.29% # Reads before turning the bus around for writes
system.mem_ctrls1.rdPerTurnAround::128-255          271      0.58%     99.87% # Reads before turning the bus around for writes
system.mem_ctrls1.rdPerTurnAround::256-383           47      0.10%     99.97% # Reads before turning the bus around for writes
system.mem_ctrls1.rdPerTurnAround::384-511            9      0.02%     99.99% # Reads before turning the bus around for writes
system.mem_ctrls1.rdPerTurnAround::512-639            1      0.00%     99.99% # Reads before turning the bus around for writes
system.mem_ctrls1.rdPerTurnAround::640-767            1      0.00%     99.99% # Reads before turning the bus around for writes
system.mem_ctrls1.rdPerTurnAround::896-1023            2      0.00%    100.00% # Reads before turning the bus around for writes
system.mem_ctrls1.rdPerTurnAround::1152-1279            1      0.00%    100.00% # Reads before turning the bus around for writes
system.mem_ctrls1.rdPerTurnAround::2816-2943            1      0.00%    100.00% # Reads before turning the bus around for writes
system.mem_ctrls1.rdPerTurnAround::total        47047                       # Reads before turning the bus around for writes
system.mem_ctrls1.wrPerTurnAround::samples        47047                       # Writes before turning the bus around for reads
system.mem_ctrls1.wrPerTurnAround::mean      6.180224                       # Writes before turning the bus around for reads
system.mem_ctrls1.wrPerTurnAround::gmean     5.839727                       # Writes before turning the bus around for reads
system.mem_ctrls1.wrPerTurnAround::stdev     2.566221                       # Writes before turning the bus around for reads
system.mem_ctrls1.wrPerTurnAround::4-7          39355     83.65%     83.65% # Writes before turning the bus around for reads
system.mem_ctrls1.wrPerTurnAround::8-11          4649      9.88%     93.53% # Writes before turning the bus around for reads
system.mem_ctrls1.wrPerTurnAround::12-15         1707      3.63%     97.16% # Writes before turning the bus around for reads
system.mem_ctrls1.wrPerTurnAround::16-19         1336      2.84%    100.00% # Writes before turning the bus around for reads
system.mem_ctrls1.wrPerTurnAround::total        47047                       # Writes before turning the bus around for reads
system.mem_ctrls1.totQLat                 41687437166                       # Total ticks spent queuing
system.mem_ctrls1.totMemAccLat            53372174666                       # Total ticks spent from burst creation until serviced by the DRAM
system.mem_ctrls1.totBusLat                3115930000                       # Total ticks spent in databus transfers
system.mem_ctrls1.avgQLat                    66894.05                       # Average queueing delay per DRAM burst
system.mem_ctrls1.avgBusLat                   5000.00                       # Average bus latency per DRAM burst
system.mem_ctrls1.avgMemAccLat               85644.05                       # Average memory access latency per DRAM burst
system.mem_ctrls1.avgRdBW                      324.92                       # Average DRAM read bandwidth in MiByte/s
system.mem_ctrls1.avgWrBW                      151.60                       # Average achieved write bandwidth in MiByte/s
system.mem_ctrls1.avgRdBWSys                   325.13                       # Average system read bandwidth in MiByte/s
system.mem_ctrls1.avgWrBWSys                   151.60                       # Average system write bandwidth in MiByte/s
system.mem_ctrls1.peakBW                     12800.00                       # Theoretical peak bandwidth in MiByte/s
system.mem_ctrls1.busUtil                        3.72                       # Data bus utilization in percentage
system.mem_ctrls1.busUtilRead                    2.54                       # Data bus utilization in percentage for reads
system.mem_ctrls1.busUtilWrite                   1.18                       # Data bus utilization in percentage for writes
system.mem_ctrls1.avgRdQLen                      1.46                       # Average read queue length when enqueuing
system.mem_ctrls1.avgWrQLen                      3.01                       # Average write queue length when enqueuing
system.mem_ctrls1.readRowHits                  458409                       # Number of row buffer hits during reads
system.mem_ctrls1.writeRowHits                 165527                       # Number of row buffer hits during writes
system.mem_ctrls1.readRowHitRate                73.56                       # Row buffer hit rate for reads
system.mem_ctrls1.writeRowHitRate               56.93                       # Row buffer hit rate for writes
system.mem_ctrls1.avgGap                    134247.80                       # Average gap between requests
system.mem_ctrls1.pageHitRate                   68.27                       # Row buffer hit rate, read and write combined
system.mem_ctrls1.memoryStateTime::IDLE   20781654000                       # Time in different power states
system.mem_ctrls1.memoryStateTime::REF     4098640000                       # Time in different power states
system.mem_ctrls1.memoryStateTime::PRE_PDN            0                       # Time in different power states
system.mem_ctrls1.memoryStateTime::ACT    97862424750                       # Time in different power states
system.mem_ctrls1.memoryStateTime::ACT_PDN            0                       # Time in different power states
system.mem_ctrls1.actEnergy::0             1106489160                       # Energy for activate commands per rank (pJ)
system.mem_ctrls1.actEnergy::1             1085789880                       # Energy for activate commands per rank (pJ)
system.mem_ctrls1.preEnergy::0              603739125                       # Energy for precharge commands per rank (pJ)
system.mem_ctrls1.preEnergy::1              592444875                       # Energy for precharge commands per rank (pJ)
system.mem_ctrls1.readEnergy::0            2438818200                       # Energy for read commands per rank (pJ)
system.mem_ctrls1.readEnergy::1            2421720600                       # Energy for read commands per rank (pJ)
system.mem_ctrls1.writeEnergy::0            946468800                       # Energy for write commands per rank (pJ)
system.mem_ctrls1.writeEnergy::1            937552320                       # Energy for write commands per rank (pJ)
system.mem_ctrls1.refreshEnergy::0         8016939840                       # Energy for refresh commands per rank (pJ)
system.mem_ctrls1.refreshEnergy::1         8016939840                       # Energy for refresh commands per rank (pJ)
system.mem_ctrls1.actBackEnergy::0        50156576010                       # Energy for active background per rank (pJ)
system.mem_ctrls1.actBackEnergy::1        49921330455                       # Energy for active background per rank (pJ)
system.mem_ctrls1.preBackEnergy::0        29648626500                       # Energy for precharge background per rank (pJ)
system.mem_ctrls1.preBackEnergy::1        29854982250                       # Energy for precharge background per rank (pJ)
system.mem_ctrls1.totalEnergy::0          92917657635                       # Total energy per rank (pJ)
system.mem_ctrls1.totalEnergy::1          92830760220                       # Total energy per rank (pJ)
system.mem_ctrls1.averagePower::0          757.011650                       # Core power per rank (mW)
system.mem_ctrls1.averagePower::1          756.303686                       # Core power per rank (mW)
system.mem_ctrls2.bytes_read::ruby.dir_cntrl2     39776512                       # Number of bytes read from this memory
system.mem_ctrls2.bytes_read::total          39776512                       # Number of bytes read from this memory
system.mem_ctrls2.bytes_written::ruby.dir_cntrl2     18603712                       # Number of bytes written to this memory
system.mem_ctrls2.bytes_written::total       18603712                       # Number of bytes written to this memory
system.mem_ctrls2.num_reads::ruby.dir_cntrl2       621508                       # Number of read requests responded to by this memory
system.mem_ctrls2.num_reads::total             621508                       # Number of read requests responded to by this memory
system.mem_ctrls2.num_writes::ruby.dir_cntrl2       290683                       # Number of write requests responded to by this memory
system.mem_ctrls2.num_writes::total            290683                       # Number of write requests responded to by this memory
system.mem_ctrls2.bw_read::ruby.dir_cntrl2    324045010                       # Total read bandwidth from this memory (bytes/s)
system.mem_ctrls2.bw_read::total            324045010                       # Total read bandwidth from this memory (bytes/s)
system.mem_ctrls2.bw_write::ruby.dir_cntrl2    151557785                       # Write bandwidth from this memory (bytes/s)
system.mem_ctrls2.bw_write::total           151557785                       # Write bandwidth from this memory (bytes/s)
system.mem_ctrls2.bw_total::ruby.dir_cntrl2    475602794                       # Total bandwidth to/from this memory (bytes/s)
system.mem_ctrls2.bw_total::total           475602794                       # Total bandwidth to/from this memory (bytes/s)
system.mem_ctrls2.readReqs                     621508                       # Number of read requests accepted
system.mem_ctrls2.writeReqs                    290683                       # Number of write requests accepted
system.mem_ctrls2.readBursts                   621508                       # Number of DRAM read bursts, including those serviced by the write queue
system.mem_ctrls2.writeBursts                  290683                       # Number of DRAM write bursts, including those merged in the write queue
system.mem_ctrls2.bytesReadDRAM              39754176                       # Total number of bytes read from DRAM
system.mem_ctrls2.bytesReadWrQ                  22336                       # Total number of bytes read from write queue
system.mem_ctrls2.bytesWritten               18603584                       # Total number of bytes written to DRAM
system.mem_ctrls2.bytesReadSys               39776512                       # Total read bytes from the system interface side
system.mem_ctrls2.bytesWrittenSys            18603712                       # Total written bytes from the system interface side
system.mem_ctrls2.servicedByWrQ                   349                       # Number of DRAM read bursts serviced by the write queue
system.mem_ctrls2.mergedWrBursts                    0                       # Number of DRAM write bursts merged with an existing one
system.mem_ctrls2.neitherReadNorWriteReqs            0                       # Number of requests that are neither read nor write
system.mem_ctrls2.perBankRdBursts::0            38799                       # Per bank write bursts
system.mem_ctrls2.perBankRdBursts::1            38756                       # Per bank write bursts
system.mem_ctrls2.perBankRdBursts::2            38979                       # Per bank write bursts
system.mem_ctrls2.perBankRdBursts::3            39287                       # Per bank write bursts
system.mem_ctrls2.perBankRdBursts::4            38562                       # Per bank write bursts
system.mem_ctrls2.perBankRdBursts::5            38403                       # Per bank write bursts
system.mem_ctrls2.perBankRdBursts::6            39566                       # Per bank write bursts
system.mem_ctrls2.perBankRdBursts::7            39348                       # Per bank write bursts
system.mem_ctrls2.perBankRdBursts::8            38411                       # Per bank write bursts
system.mem_ctrls2.perBankRdBursts::9            38356                       # Per bank write bursts
system.mem_ctrls2.perBankRdBursts::10           38835                       # Per bank write bursts
system.mem_ctrls2.perBankRdBursts::11           39299                       # Per bank write bursts
system.mem_ctrls2.perBankRdBursts::12           38381                       # Per bank write bursts
system.mem_ctrls2.perBankRdBursts::13           38029                       # Per bank write bursts
system.mem_ctrls2.perBankRdBursts::14           38965                       # Per bank write bursts
system.mem_ctrls2.perBankRdBursts::15           39183                       # Per bank write bursts
system.mem_ctrls2.perBankWrBursts::0            18038                       # Per bank write bursts
system.mem_ctrls2.perBankWrBursts::1            18114                       # Per bank write bursts
system.mem_ctrls2.perBankWrBursts::2            18418                       # Per bank write bursts
system.mem_ctrls2.perBankWrBursts::3            18380                       # Per bank write bursts
system.mem_ctrls2.perBankWrBursts::4            18113                       # Per bank write bursts
system.mem_ctrls2.perBankWrBursts::5            18139                       # Per bank write bursts
system.mem_ctrls2.perBankWrBursts::6            18306                       # Per bank write bursts
system.mem_ctrls2.perBankWrBursts::7            18471                       # Per bank write bursts
system.mem_ctrls2.perBankWrBursts::8            17925                       # Per bank write bursts
system.mem_ctrls2.perBankWrBursts::9            18079                       # Per bank write bursts
system.mem_ctrls2.perBankWrBursts::10           18205                       # Per bank write bursts
system.mem_ctrls2.perBankWrBursts::11           18177                       # Per bank write bursts
system.mem_ctrls2.perBankWrBursts::12           17964                       # Per bank write bursts
system.mem_ctrls2.perBankWrBursts::13           17917                       # Per bank write bursts
system.mem_ctrls2.perBankWrBursts::14           18179                       # Per bank write bursts
system.mem_ctrls2.perBankWrBursts::15           18256                       # Per bank write bursts
system.mem_ctrls2.numRdRetry                     3333                       # Number of times read queue was full causing retry
system.mem_ctrls2.numWrRetry                     5869                       # Number of times write queue was full causing retry
system.mem_ctrls2.totGap                 122749917000                       # Total gap between requests
system.mem_ctrls2.readPktSize::0                    0                       # Read request sizes (log2)
system.mem_ctrls2.readPktSize::1                    0                       # Read request sizes (log2)
system.mem_ctrls2.readPktSize::2                    0                       # Read request sizes (log2)
system.mem_ctrls2.readPktSize::3                    0                       # Read request sizes (log2)
system.mem_ctrls2.readPktSize::4                    0                       # Read request sizes (log2)
system.mem_ctrls2.readPktSize::5                    0                       # Read request sizes (log2)
system.mem_ctrls2.readPktSize::6               621508                       # Read request sizes (log2)
system.mem_ctrls2.writePktSize::0                   0                       # Write request sizes (log2)
system.mem_ctrls2.writePktSize::1                   0                       # Write request sizes (log2)
system.mem_ctrls2.writePktSize::2                   0                       # Write request sizes (log2)
system.mem_ctrls2.writePktSize::3                   0                       # Write request sizes (log2)
system.mem_ctrls2.writePktSize::4                   0                       # Write request sizes (log2)
system.mem_ctrls2.writePktSize::5                   0                       # Write request sizes (log2)
system.mem_ctrls2.writePktSize::6              290683                       # Write request sizes (log2)
system.mem_ctrls2.rdQLenPdf::0                 203606                       # What read queue length does an incoming req see
system.mem_ctrls2.rdQLenPdf::1                  54043                       # What read queue length does an incoming req see
system.mem_ctrls2.rdQLenPdf::2                  46305                       # What read queue length does an incoming req see
system.mem_ctrls2.rdQLenPdf::3                  41493                       # What read queue length does an incoming req see
system.mem_ctrls2.rdQLenPdf::4                  36976                       # What read queue length does an incoming req see
system.mem_ctrls2.rdQLenPdf::5                  32872                       # What read queue length does an incoming req see
system.mem_ctrls2.rdQLenPdf::6                  28744                       # What read queue length does an incoming req see
system.mem_ctrls2.rdQLenPdf::7                  25043                       # What read queue length does an incoming req see
system.mem_ctrls2.rdQLenPdf::8                  21477                       # What read queue length does an incoming req see
system.mem_ctrls2.rdQLenPdf::9                  18504                       # What read queue length does an incoming req see
system.mem_ctrls2.rdQLenPdf::10                 15991                       # What read queue length does an incoming req see
system.mem_ctrls2.rdQLenPdf::11                 13606                       # What read queue length does an incoming req see
system.mem_ctrls2.rdQLenPdf::12                 11609                       # What read queue length does an incoming req see
system.mem_ctrls2.rdQLenPdf::13                  9777                       # What read queue length does an incoming req see
system.mem_ctrls2.rdQLenPdf::14                  8423                       # What read queue length does an incoming req see
system.mem_ctrls2.rdQLenPdf::15                  7281                       # What read queue length does an incoming req see
system.mem_ctrls2.rdQLenPdf::16                  6226                       # What read queue length does an incoming req see
system.mem_ctrls2.rdQLenPdf::17                  5404                       # What read queue length does an incoming req see
system.mem_ctrls2.rdQLenPdf::18                  4696                       # What read queue length does an incoming req see
system.mem_ctrls2.rdQLenPdf::19                  4094                       # What read queue length does an incoming req see
system.mem_ctrls2.rdQLenPdf::20                  3486                       # What read queue length does an incoming req see
system.mem_ctrls2.rdQLenPdf::21                  3005                       # What read queue length does an incoming req see
system.mem_ctrls2.rdQLenPdf::22                  2598                       # What read queue length does an incoming req see
system.mem_ctrls2.rdQLenPdf::23                  2324                       # What read queue length does an incoming req see
system.mem_ctrls2.rdQLenPdf::24                  1937                       # What read queue length does an incoming req see
system.mem_ctrls2.rdQLenPdf::25                  1715                       # What read queue length does an incoming req see
system.mem_ctrls2.rdQLenPdf::26                  1525                       # What read queue length does an incoming req see
system.mem_ctrls2.rdQLenPdf::27                  1313                       # What read queue length does an incoming req see
system.mem_ctrls2.rdQLenPdf::28                  1147                       # What read queue length does an incoming req see
system.mem_ctrls2.rdQLenPdf::29                  1022                       # What read queue length does an incoming req see
system.mem_ctrls2.rdQLenPdf::30                   837                       # What read queue length does an incoming req see
system.mem_ctrls2.rdQLenPdf::31                  4080                       # What read queue length does an incoming req see
system.mem_ctrls2.wrQLenPdf::0                  46051                       # What write queue length does an incoming req see
system.mem_ctrls2.wrQLenPdf::1                  52008                       # What write queue length does an incoming req see
system.mem_ctrls2.wrQLenPdf::2                  54130                       # What write queue length does an incoming req see
system.mem_ctrls2.wrQLenPdf::3                  54676                       # What write queue length does an incoming req see
system.mem_ctrls2.wrQLenPdf::4                  53806                       # What write queue length does an incoming req see
system.mem_ctrls2.wrQLenPdf::5                  10979                       # What write queue length does an incoming req see
system.mem_ctrls2.wrQLenPdf::6                   8386                       # What write queue length does an incoming req see
system.mem_ctrls2.wrQLenPdf::7                  10647                       # What write queue length does an incoming req see
system.mem_ctrls2.bytesPerActivate::samples       288084                       # Bytes accessed per row activation
system.mem_ctrls2.bytesPerActivate::mean   202.569362                       # Bytes accessed per row activation
system.mem_ctrls2.bytesPerActivate::gmean   155.989022                       # Bytes accessed per row activation
system.mem_ctrls2.bytesPerActivate::stdev   149.596792                       # Bytes accessed per row activation
system.mem_ctrls2.bytesPerActivate::0-127        92410     32.08%     32.08% # Bytes accessed per row activation
system.mem_ctrls2.bytesPerActivate::128-255        87977     30.54%     62.62% # Bytes accessed per row activation
system.mem_ctrls2.bytesPerActivate::256-383        72304     25.10%     87.71% # Bytes accessed per row activation
system.mem_ctrls2.bytesPerActivate::384-511        17451      6.06%     93.77% # Bytes accessed per row activation
system.mem_ctrls2.bytesPerActivate::512-639        13242      4.60%     98.37% # Bytes accessed per row activation
system.mem_ctrls2.bytesPerActivate::640-767         2401      0.83%     99.20% # Bytes accessed per row activation
system.mem_ctrls2.bytesPerActivate::768-895         1205      0.42%     99.62% # Bytes accessed per row activation
system.mem_ctrls2.bytesPerActivate::896-1023          729      0.25%     99.87% # Bytes accessed per row activation
system.mem_ctrls2.bytesPerActivate::1024-1151          365      0.13%    100.00% # Bytes accessed per row activation
system.mem_ctrls2.bytesPerActivate::total       288084                       # Bytes accessed per row activation
system.mem_ctrls2.rdPerTurnAround::samples        47118                       # Reads before turning the bus around for writes
system.mem_ctrls2.rdPerTurnAround::mean     13.182987                       # Reads before turning the bus around for writes
system.mem_ctrls2.rdPerTurnAround::stdev    26.993101                       # Reads before turning the bus around for writes
system.mem_ctrls2.rdPerTurnAround::0-127        46793     99.31%     99.31% # Reads before turning the bus around for writes
system.mem_ctrls2.rdPerTurnAround::128-255          277      0.59%     99.90% # Reads before turning the bus around for writes
system.mem_ctrls2.rdPerTurnAround::256-383           35      0.07%     99.97% # Reads before turning the bus around for writes
system.mem_ctrls2.rdPerTurnAround::384-511            6      0.01%     99.99% # Reads before turning the bus around for writes
system.mem_ctrls2.rdPerTurnAround::512-639            2      0.00%     99.99% # Reads before turning the bus around for writes
system.mem_ctrls2.rdPerTurnAround::640-767            1      0.00%     99.99% # Reads before turning the bus around for writes
system.mem_ctrls2.rdPerTurnAround::896-1023            1      0.00%     99.99% # Reads before turning the bus around for writes
system.mem_ctrls2.rdPerTurnAround::1024-1151            1      0.00%    100.00% # Reads before turning the bus around for writes
system.mem_ctrls2.rdPerTurnAround::1152-1279            1      0.00%    100.00% # Reads before turning the bus around for writes
system.mem_ctrls2.rdPerTurnAround::2816-2943            1      0.00%    100.00% # Reads before turning the bus around for writes
system.mem_ctrls2.rdPerTurnAround::total        47118                       # Reads before turning the bus around for writes
system.mem_ctrls2.wrPerTurnAround::samples        47118                       # Writes before turning the bus around for reads
system.mem_ctrls2.wrPerTurnAround::mean      6.169213                       # Writes before turning the bus around for reads
system.mem_ctrls2.wrPerTurnAround::gmean     5.832919                       # Writes before turning the bus around for reads
system.mem_ctrls2.wrPerTurnAround::stdev     2.550073                       # Writes before turning the bus around for reads
system.mem_ctrls2.wrPerTurnAround::4-7          39543     83.92%     83.92% # Writes before turning the bus around for reads
system.mem_ctrls2.wrPerTurnAround::8-11          4574      9.71%     93.63% # Writes before turning the bus around for reads
system.mem_ctrls2.wrPerTurnAround::12-15         1676      3.56%     97.19% # Writes before turning the bus around for reads
system.mem_ctrls2.wrPerTurnAround::16-19         1325      2.81%    100.00% # Writes before turning the bus around for reads
system.mem_ctrls2.wrPerTurnAround::total        47118                       # Writes before turning the bus around for reads
system.mem_ctrls2.totQLat                 41005166128                       # Total ticks spent queuing
system.mem_ctrls2.totMemAccLat            52651897378                       # Total ticks spent from burst creation until serviced by the DRAM
system.mem_ctrls2.totBusLat                3105795000                       # Total ticks spent in databus transfers
system.mem_ctrls2.avgQLat                    66013.96                       # Average queueing delay per DRAM burst
system.mem_ctrls2.avgBusLat                   5000.00                       # Average bus latency per DRAM burst
system.mem_ctrls2.avgMemAccLat               84763.96                       # Average memory access latency per DRAM burst
system.mem_ctrls2.avgRdBW                      323.86                       # Average DRAM read bandwidth in MiByte/s
system.mem_ctrls2.avgWrBW                      151.56                       # Average achieved write bandwidth in MiByte/s
system.mem_ctrls2.avgRdBWSys                   324.05                       # Average system read bandwidth in MiByte/s
system.mem_ctrls2.avgWrBWSys                   151.56                       # Average system write bandwidth in MiByte/s
system.mem_ctrls2.peakBW                     12800.00                       # Theoretical peak bandwidth in MiByte/s
system.mem_ctrls2.busUtil                        3.71                       # Data bus utilization in percentage
system.mem_ctrls2.busUtilRead                    2.53                       # Data bus utilization in percentage for reads
system.mem_ctrls2.busUtilWrite                   1.18                       # Data bus utilization in percentage for writes
system.mem_ctrls2.avgRdQLen                      1.45                       # Average read queue length when enqueuing
system.mem_ctrls2.avgWrQLen                      3.01                       # Average write queue length when enqueuing
system.mem_ctrls2.readRowHits                  457444                       # Number of row buffer hits during reads
system.mem_ctrls2.writeRowHits                 166303                       # Number of row buffer hits during writes
system.mem_ctrls2.readRowHitRate                73.64                       # Row buffer hit rate for reads
system.mem_ctrls2.writeRowHitRate               57.21                       # Row buffer hit rate for writes
system.mem_ctrls2.avgGap                    134566.03                       # Average gap between requests
system.mem_ctrls2.pageHitRate                   68.41                       # Row buffer hit rate, read and write combined
system.mem_ctrls2.memoryStateTime::IDLE   20907003250                       # Time in different power states
system.mem_ctrls2.memoryStateTime::REF     4098640000                       # Time in different power states
system.mem_ctrls2.memoryStateTime::PRE_PDN            0                       # Time in different power states
system.mem_ctrls2.memoryStateTime::ACT    97737075500                       # Time in different power states
system.mem_ctrls2.memoryStateTime::ACT_PDN            0                       # Time in different power states
system.mem_ctrls2.actEnergy::0             1096956000                       # Energy for activate commands per rank (pJ)
system.mem_ctrls2.actEnergy::1             1080868320                       # Energy for activate commands per rank (pJ)
system.mem_ctrls2.preEnergy::0              598537500                       # Energy for precharge commands per rank (pJ)
system.mem_ctrls2.preEnergy::1              589759500                       # Energy for precharge commands per rank (pJ)
system.mem_ctrls2.readEnergy::0            2431189800                       # Energy for read commands per rank (pJ)
system.mem_ctrls2.readEnergy::1            2413671000                       # Energy for read commands per rank (pJ)
system.mem_ctrls2.writeEnergy::0            945905040                       # Energy for write commands per rank (pJ)
system.mem_ctrls2.writeEnergy::1            937643040                       # Energy for write commands per rank (pJ)
system.mem_ctrls2.refreshEnergy::0         8016939840                       # Energy for refresh commands per rank (pJ)
system.mem_ctrls2.refreshEnergy::1         8016939840                       # Energy for refresh commands per rank (pJ)
system.mem_ctrls2.actBackEnergy::0        50392190925                       # Energy for active background per rank (pJ)
system.mem_ctrls2.actBackEnergy::1        49879733850                       # Energy for active background per rank (pJ)
system.mem_ctrls2.preBackEnergy::0        29441946750                       # Energy for precharge background per rank (pJ)
system.mem_ctrls2.preBackEnergy::1        29891470500                       # Energy for precharge background per rank (pJ)
system.mem_ctrls2.totalEnergy::0          92923665855                       # Total energy per rank (pJ)
system.mem_ctrls2.totalEnergy::1          92810086050                       # Total energy per rank (pJ)
system.mem_ctrls2.averagePower::0          757.060600                       # Core power per rank (mW)
system.mem_ctrls2.averagePower::1          756.135251                       # Core power per rank (mW)
system.mem_ctrls3.bytes_read::ruby.dir_cntrl3     40004800                       # Number of bytes read from this memory
system.mem_ctrls3.bytes_read::total          40004800                       # Number of bytes read from this memory
system.mem_ctrls3.bytes_written::ruby.dir_cntrl3     18667968                       # Number of bytes written to this memory
system.mem_ctrls3.bytes_written::total       18667968                       # Number of bytes written to this memory
system.mem_ctrls3.num_reads::ruby.dir_cntrl3       625075                       # Number of read requests responded to by this memory
system.mem_ctrls3.num_reads::total             625075                       # Number of read requests responded to by this memory
system.mem_ctrls3.num_writes::ruby.dir_cntrl3       291687                       # Number of write requests responded to by this memory
system.mem_ctrls3.num_writes::total            291687                       # Number of write requests responded to by this memory
system.mem_ctrls3.bw_read::ruby.dir_cntrl3    325904791                       # Total read bandwidth from this memory (bytes/s)
system.mem_ctrls3.bw_read::total            325904791                       # Total read bandwidth from this memory (bytes/s)
system.mem_ctrls3.bw_write::ruby.dir_cntrl3    152081255                       # Write bandwidth from this memory (bytes/s)
system.mem_ctrls3.bw_write::total           152081255                       # Write bandwidth from this memory (bytes/s)
system.mem_ctrls3.bw_total::ruby.dir_cntrl3    477986046                       # Total bandwidth to/from this memory (bytes/s)
system.mem_ctrls3.bw_total::total           477986046                       # Total bandwidth to/from this memory (bytes/s)
system.mem_ctrls3.readReqs                     625076                       # Number of read requests accepted
system.mem_ctrls3.writeReqs                    291687                       # Number of write requests accepted
system.mem_ctrls3.readBursts                   625076                       # Number of DRAM read bursts, including those serviced by the write queue
system.mem_ctrls3.writeBursts                  291687                       # Number of DRAM write bursts, including those merged in the write queue
system.mem_ctrls3.bytesReadDRAM              39984064                       # Total number of bytes read from DRAM
system.mem_ctrls3.bytesReadWrQ                  20800                       # Total number of bytes read from write queue
system.mem_ctrls3.bytesWritten               18667840                       # Total number of bytes written to DRAM
system.mem_ctrls3.bytesReadSys               40004864                       # Total read bytes from the system interface side
system.mem_ctrls3.bytesWrittenSys            18667968                       # Total written bytes from the system interface side
system.mem_ctrls3.servicedByWrQ                   325                       # Number of DRAM read bursts serviced by the write queue
system.mem_ctrls3.mergedWrBursts                    0                       # Number of DRAM write bursts merged with an existing one
system.mem_ctrls3.neitherReadNorWriteReqs            0                       # Number of requests that are neither read nor write
system.mem_ctrls3.perBankRdBursts::0            38791                       # Per bank write bursts
system.mem_ctrls3.perBankRdBursts::1            39135                       # Per bank write bursts
system.mem_ctrls3.perBankRdBursts::2            39361                       # Per bank write bursts
system.mem_ctrls3.perBankRdBursts::3            39327                       # Per bank write bursts
system.mem_ctrls3.perBankRdBursts::4            38651                       # Per bank write bursts
system.mem_ctrls3.perBankRdBursts::5            38737                       # Per bank write bursts
system.mem_ctrls3.perBankRdBursts::6            39840                       # Per bank write bursts
system.mem_ctrls3.perBankRdBursts::7            39515                       # Per bank write bursts
system.mem_ctrls3.perBankRdBursts::8            38439                       # Per bank write bursts
system.mem_ctrls3.perBankRdBursts::9            38745                       # Per bank write bursts
system.mem_ctrls3.perBankRdBursts::10           39279                       # Per bank write bursts
system.mem_ctrls3.perBankRdBursts::11           39393                       # Per bank write bursts
system.mem_ctrls3.perBankRdBursts::12           38585                       # Per bank write bursts
system.mem_ctrls3.perBankRdBursts::13           38430                       # Per bank write bursts
system.mem_ctrls3.perBankRdBursts::14           39298                       # Per bank write bursts
system.mem_ctrls3.perBankRdBursts::15           39225                       # Per bank write bursts
system.mem_ctrls3.perBankWrBursts::0            18102                       # Per bank write bursts
system.mem_ctrls3.perBankWrBursts::1            18283                       # Per bank write bursts
system.mem_ctrls3.perBankWrBursts::2            18454                       # Per bank write bursts
system.mem_ctrls3.perBankWrBursts::3            18398                       # Per bank write bursts
system.mem_ctrls3.perBankWrBursts::4            18198                       # Per bank write bursts
system.mem_ctrls3.perBankWrBursts::5            18248                       # Per bank write bursts
system.mem_ctrls3.perBankWrBursts::6            18375                       # Per bank write bursts
system.mem_ctrls3.perBankWrBursts::7            18410                       # Per bank write bursts
system.mem_ctrls3.perBankWrBursts::8            17976                       # Per bank write bursts
system.mem_ctrls3.perBankWrBursts::9            18239                       # Per bank write bursts
system.mem_ctrls3.perBankWrBursts::10           18247                       # Per bank write bursts
system.mem_ctrls3.perBankWrBursts::11           18235                       # Per bank write bursts
system.mem_ctrls3.perBankWrBursts::12           18016                       # Per bank write bursts
system.mem_ctrls3.perBankWrBursts::13           18066                       # Per bank write bursts
system.mem_ctrls3.perBankWrBursts::14           18254                       # Per bank write bursts
system.mem_ctrls3.perBankWrBursts::15           18184                       # Per bank write bursts
system.mem_ctrls3.numRdRetry                     3354                       # Number of times read queue was full causing retry
system.mem_ctrls3.numWrRetry                     5359                       # Number of times write queue was full causing retry
system.mem_ctrls3.totGap                 122749213000                       # Total gap between requests
system.mem_ctrls3.readPktSize::0                    0                       # Read request sizes (log2)
system.mem_ctrls3.readPktSize::1                    0                       # Read request sizes (log2)
system.mem_ctrls3.readPktSize::2                    0                       # Read request sizes (log2)
system.mem_ctrls3.readPktSize::3                    0                       # Read request sizes (log2)
system.mem_ctrls3.readPktSize::4                    0                       # Read request sizes (log2)
system.mem_ctrls3.readPktSize::5                    0                       # Read request sizes (log2)
system.mem_ctrls3.readPktSize::6               625076                       # Read request sizes (log2)
system.mem_ctrls3.writePktSize::0                   0                       # Write request sizes (log2)
system.mem_ctrls3.writePktSize::1                   0                       # Write request sizes (log2)
system.mem_ctrls3.writePktSize::2                   0                       # Write request sizes (log2)
system.mem_ctrls3.writePktSize::3                   0                       # Write request sizes (log2)
system.mem_ctrls3.writePktSize::4                   0                       # Write request sizes (log2)
system.mem_ctrls3.writePktSize::5                   0                       # Write request sizes (log2)
system.mem_ctrls3.writePktSize::6              291687                       # Write request sizes (log2)
system.mem_ctrls3.rdQLenPdf::0                 202802                       # What read queue length does an incoming req see
system.mem_ctrls3.rdQLenPdf::1                  54425                       # What read queue length does an incoming req see
system.mem_ctrls3.rdQLenPdf::2                  46902                       # What read queue length does an incoming req see
system.mem_ctrls3.rdQLenPdf::3                  41470                       # What read queue length does an incoming req see
system.mem_ctrls3.rdQLenPdf::4                  37025                       # What read queue length does an incoming req see
system.mem_ctrls3.rdQLenPdf::5                  32904                       # What read queue length does an incoming req see
system.mem_ctrls3.rdQLenPdf::6                  28710                       # What read queue length does an incoming req see
system.mem_ctrls3.rdQLenPdf::7                  25057                       # What read queue length does an incoming req see
[...]
system.ruby.L2Cache_Controller.SS_MB.Exclusive_Unblock::total           38                      
system.ruby.L2Cache_Controller.MT_MB.L1_GETS |          31      1.55%      1.55% |          39      1.96%      3.51% |          43      2.16%      5.67% |          37      1.86%      7.52% |          54      2.71%     10.23% |          56      2.81%     13.04% |          46      2.31%     15.35% |          56      2.81%     18.15% |          67      3.36%     21.51% |          60      3.01%     24.52% |          72      3.61%     28.13% |          64      3.21%     31.34% |          68      3.41%     34.75% |          71      3.56%     38.31% |          84      4.21%     42.53% |          75      3.76%     46.29% |          73      3.66%     49.95% |          74      3.71%     53.66% |          64      3.21%     56.87% |          86      4.31%     61.18% |          69      3.46%     64.64% |          64      3.21%     67.85% |          79      3.96%     71.82% |          77      3.86%     75.68% |          63      3.16%     78.84% |          59      2.96%     81.80% |          76      3.81%     85.61% |          82      4.11%     89.72% |          52      2.61%     92.33% |          52      2.61%     94.93% |          57      2.86%     97.79% |          44      2.21%    100.00%
system.ruby.L2Cache_Controller.MT_MB.L1_GETS::total         1994                      
system.ruby.L2Cache_Controller.MT_MB.L1_PUTX |          55      2.18%      2.18% |          61      2.42%      4.60% |          64      2.54%      7.13% |          57      2.26%      9.39% |          56      2.22%     11.61% |          65      2.58%     14.19% |          39      1.55%     15.74% |          48      1.90%     17.64% |          65      2.58%     20.21% |          96      3.80%     24.02% |          64      2.54%     26.56% |          56      2.22%     28.78% |         103      4.08%     32.86% |          93      3.69%     36.54% |          71      2.81%     39.36% |         108      4.28%     43.64% |          83      3.29%     46.93% |          91      3.61%     50.54% |          86      3.41%     53.94% |          49      1.94%     55.89% |          85      3.37%     59.25% |         139      5.51%     64.76% |          81      3.21%     67.97% |         158      6.26%     74.24% |         119      4.72%     78.95% |          81      3.21%     82.16% |         110      4.36%     86.52% |          87      3.45%     89.97% |          48      1.90%     91.87% |          78      3.09%     94.97% |          57      2.26%     97.23% |          70      2.77%    100.00%
system.ruby.L2Cache_Controller.MT_MB.L1_PUTX::total         2523                      
system.ruby.L2Cache_Controller.MT_MB.L1_PUTX_old |           1      4.55%      4.55% |           0      0.00%      4.55% |           0      0.00%      4.55% |           1      4.55%      9.09% |           1      4.55%     13.64% |           1      4.55%     18.18% |           0      0.00%     18.18% |           0      0.00%     18.18% |           0      0.00%     18.18% |           1      4.55%     22.73% |           0      0.00%     22.73% |           0      0.00%     22.73% |           0      0.00%     22.73% |           2      9.09%     31.82% |           0      0.00%     31.82% |           1      4.55%     36.36% |           0      0.00%     36.36% |           1      4.55%     40.91% |           1      4.55%     45.45% |           0      0.00%     45.45% |           1      4.55%     50.00% |           0      0.00%     50.00% |           1      4.55%     54.55% |           2      9.09%     63.64% |           1      4.55%     68.18% |           1      4.55%     72.73% |           0      0.00%     72.73% |           3     13.64%     86.36% |           1      4.55%     90.91% |           0      0.00%     90.91% |           2      9.09%    100.00% |           0      0.00%    100.00%
system.ruby.L2Cache_Controller.MT_MB.L1_PUTX_old::total           22                      
system.ruby.L2Cache_Controller.MT_MB.Exclusive_Unblock |      219835      5.19%      5.19% |      129615      3.06%      8.25% |      128245      3.03%     11.28% |      130406      3.08%     14.35% |      128277      3.03%     17.38% |      127779      3.02%     20.40% |      127717      3.01%     23.41% |      127183      3.00%     26.42% |      127602      3.01%     29.43% |      128250      3.03%     32.46% |      130031      3.07%     35.53% |      129069      3.05%     38.57% |      127780      3.02%     41.59% |      128553      3.03%     44.62% |      127117      3.00%     47.62% |      127193      3.00%     50.63% |      128020      3.02%     53.65% |      128052      3.02%     56.67% |      128273      3.03%     59.70% |      128739      3.04%     62.74% |      128780      3.04%     65.78% |      143396      3.38%     69.16% |      136955      3.23%     72.40% |      127877      3.02%     75.41% |      128179      3.03%     78.44% |      128513      3.03%     81.47% |      128084      3.02%     84.50% |      128048      3.02%     87.52% |      129201      3.05%     90.57% |      128370      3.03%     93.60% |      131904      3.11%     96.71% |      139183      3.29%    100.00%
system.ruby.L2Cache_Controller.MT_MB.Exclusive_Unblock::total      4236226                      
system.ruby.L2Cache_Controller.MT_IIB.L1_PUTX |          24      2.60%      2.60% |          22      2.38%      4.98% |          22      2.38%      7.36% |          19      2.06%      9.42% |          24      2.60%     12.01% |          16      1.73%     13.74% |          22      2.38%     16.13% |          29      3.14%     19.26% |          30      3.25%     22.51% |          32      3.46%     25.97% |          36      3.90%     29.87% |          18      1.95%     31.82% |          25      2.71%     34.52% |          34      3.68%     38.20% |          28      3.03%     41.23% |          27      2.92%     44.16% |          28      3.03%     47.19% |          34      3.68%     50.87% |          36      3.90%     54.76% |          31      3.35%     58.12% |          31      3.35%     61.47% |          30      3.25%     64.72% |          38      4.11%     68.83% |          50      5.41%     74.24% |          32      3.46%     77.71% |          32      3.46%     81.17% |          43      4.65%     85.82% |          40      4.33%     90.15% |          23      2.49%     92.64% |          14      1.52%     94.16% |          25      2.71%     96.86% |          29      3.14%    100.00%
system.ruby.L2Cache_Controller.MT_IIB.L1_PUTX::total          924                      
system.ruby.L2Cache_Controller.MT_IIB.WB_Data |           0      0.00%      0.00% |           0      0.00%      0.00% |           0      0.00%      0.00% |           0      0.00%      0.00% |           0      0.00%      0.00% |           0      0.00%      0.00% |           0      0.00%      0.00% |           0      0.00%      0.00% |           0      0.00%      0.00% |           0      0.00%      0.00% |           0      0.00%      0.00% |           0      0.00%      0.00% |           0      0.00%      0.00% |           0      0.00%      0.00% |           0      0.00%      0.00% |           0      0.00%      0.00% |           0      0.00%      0.00% |           0      0.00%      0.00% |           0      0.00%      0.00% |           0      0.00%      0.00% |           0      0.00%      0.00% |           2     40.00%     40.00% |           0      0.00%     40.00% |           0      0.00%     40.00% |           0      0.00%     40.00% |           0      0.00%     40.00% |           1     20.00%     60.00% |           0      0.00%     60.00% |           0      0.00%     60.00% |           0      0.00%     60.00% |           0      0.00%     60.00% |           2     40.00%    100.00%
system.ruby.L2Cache_Controller.MT_IIB.WB_Data::total            5                      
system.ruby.L2Cache_Controller.MT_IIB.WB_Data_clean |        1257      3.47%      3.47% |        1204      3.32%      6.79% |        1139      3.14%      9.93% |        1099      3.03%     12.96% |        1119      3.09%     16.05% |        1072      2.96%     19.01% |        1161      3.20%     22.21% |        1125      3.10%     25.32% |        1112      3.07%     28.38% |        1057      2.92%     31.30% |        1151      3.18%     34.48% |        1123      3.10%     37.57% |        1136      3.13%     40.71% |        1096      3.02%     43.73% |        1107      3.05%     46.79% |        1058      2.92%     49.71% |        1120      3.09%     52.80% |        1123      3.10%     55.89% |        1103      3.04%     58.94% |        1143      3.15%     62.09% |        1137      3.14%     65.23% |        1088      3.00%     68.23% |        1147      3.16%     71.39% |        1149      3.17%     74.56% |        1181      3.26%     77.82% |        1136      3.13%     80.96% |        1186      3.27%     84.23% |        1145      3.16%     87.39% |        1148      3.17%     90.56% |        1115      3.08%     93.63% |        1167      3.22%     96.85% |        1141      3.15%    100.00%
system.ruby.L2Cache_Controller.MT_IIB.WB_Data_clean::total        36245                      
system.ruby.L2Cache_Controller.MT_IIB.Unblock |          21      0.95%      0.95% |          17      0.77%      1.73% |         127      5.77%      7.50% |         107      4.86%     12.36% |         138      6.27%     18.64% |         101      4.59%     23.23% |          28      1.27%     24.50% |           8      0.36%     24.86% |          82      3.73%     28.59% |         101      4.59%     33.18% |          85      3.86%     37.05% |          66      3.00%     40.05% |          68      3.09%     43.14% |          42      1.91%     45.05% |          56      2.55%     47.59% |          65      2.95%     50.55% |          30      1.36%     51.91% |          23      1.05%     52.95% |          70      3.18%     56.14% |          48      2.18%     58.32% |          92      4.18%     62.50% |          85      3.86%     66.36% |          75      3.41%     69.77% |          53      2.41%     72.18% |          85      3.86%     76.05% |          74      3.36%     79.41% |          56      2.55%     81.95% |          60      2.73%     84.68% |          92      4.18%     88.86% |          88      4.00%     92.86% |          94      4.27%     97.14% |          63      2.86%    100.00%
system.ruby.L2Cache_Controller.MT_IIB.Unblock::total         2200                      
system.ruby.L2Cache_Controller.MT_IB.WB_Data_clean |          21      0.95%      0.95% |          17      0.77%      1.73% |         127      5.77%      7.50% |         107      4.86%     12.36% |         138      6.27%     18.64% |         101      4.59%     23.23% |          28      1.27%     24.50% |           8      0.36%     24.86% |          82      3.73%     28.59% |         101      4.59%     33.18% |          85      3.86%     37.05% |          66      3.00%     40.05% |          68      3.09%     43.14% |          42      1.91%     45.05% |          56      2.55%     47.59% |          65      2.95%     50.55% |          30      1.36%     51.91% |          23      1.05%     52.95% |          70      3.18%     56.14% |          48      2.18%     58.32% |          92      4.18%     62.50% |          85      3.86%     66.36% |          75      3.41%     69.77% |          53      2.41%     72.18% |          85      3.86%     76.05% |          74      3.36%     79.41% |          56      2.55%     81.95% |          60      2.73%     84.68% |          92      4.18%     88.86% |          88      4.00%     92.86% |          94      4.27%     97.14% |          63      2.86%    100.00%
system.ruby.L2Cache_Controller.MT_IB.WB_Data_clean::total         2200                      
system.ruby.L2Cache_Controller.MT_SB.L1_PUTX |           4      6.90%      6.90% |           1      1.72%      8.62% |           0      0.00%      8.62% |           0      0.00%      8.62% |           1      1.72%     10.34% |           2      3.45%     13.79% |           0      0.00%     13.79% |           2      3.45%     17.24% |           4      6.90%     24.14% |           0      0.00%     24.14% |           1      1.72%     25.86% |           3      5.17%     31.03% |           4      6.90%     37.93% |           2      3.45%     41.38% |           2      3.45%     44.83% |           3      5.17%     50.00% |           2      3.45%     53.45% |           2      3.45%     56.90% |           3      5.17%     62.07% |           3      5.17%     67.24% |           2      3.45%     70.69% |           0      0.00%     70.69% |           0      0.00%     70.69% |           3      5.17%     75.86% |           3      5.17%     81.03% |           0      0.00%     81.03% |           0      0.00%     81.03% |           4      6.90%     87.93% |           0      0.00%     87.93% |           2      3.45%     91.38% |           3      5.17%     96.55% |           2      3.45%    100.00%
system.ruby.L2Cache_Controller.MT_SB.L1_PUTX::total           58                      
system.ruby.L2Cache_Controller.MT_SB.Unblock |        1257      3.47%      3.47% |        1204      3.32%      6.79% |        1139      3.14%      9.93% |        1099      3.03%     12.96% |        1119      3.09%     16.05% |        1072      2.96%     19.01% |        1161      3.20%     22.21% |        1125      3.10%     25.31% |        1112      3.07%     28.38% |        1057      2.92%     31.30% |        1151      3.18%     34.47% |        1123      3.10%     37.57% |        1136      3.13%     40.70% |        1096      3.02%     43.73% |        1107      3.05%     46.78% |        1058      2.92%     49.70% |        1120      3.09%     52.79% |        1123      3.10%     55.89% |        1103      3.04%     58.93% |        1143      3.15%     62.08% |        1137      3.14%     65.22% |        1090      3.01%     68.23% |        1147      3.16%     71.39% |        1149      3.17%     74.56% |        1181      3.26%     77.82% |        1136      3.13%     80.95% |        1187      3.27%     84.23% |        1145      3.16%     87.38% |        1148      3.17%     90.55% |        1115      3.08%     93.63% |        1167      3.22%     96.85% |        1143      3.15%    100.00%
system.ruby.L2Cache_Controller.MT_SB.Unblock::total        36250                      
system.ruby.SimicsNetworkPortInterface_Controller.MessageSend |      489480     19.53%     19.53% |     1253115     50.00%     69.53% |      181760      7.25%     76.78% |      194333      7.75%     84.54% |      190120      7.59%     92.12% |      197422      7.88%    100.00% |           0      0.00%    100.00% |           0      0.00%    100.00% |           0      0.00%    100.00% |           0      0.00%    100.00% |           0      0.00%    100.00% |           0      0.00%    100.00% |           0      0.00%    100.00% |           0      0.00%    100.00% |           0      0.00%    100.00% |           0      0.00%    100.00% |           0      0.00%    100.00% |           0      0.00%    100.00% |           0      0.00%    100.00% |           0      0.00%    100.00% |           0      0.00%    100.00% |           0      0.00%    100.00% |           0      0.00%    100.00% |           0      0.00%    100.00% |           0      0.00%    100.00% |           0      0.00%    100.00% |           0      0.00%    100.00% |           0      0.00%    100.00% |           0      0.00%    100.00% |           0      0.00%    100.00% |           0      0.00%    100.00% |           0      0.00%    100.00%
system.ruby.SimicsNetworkPortInterface_Controller.MessageSend::total      2506230                      
system.ruby.SimicsNetworkPortInterface_Controller.MessageRecv |      489480     19.53%     19.53% |     1253115     50.00%     69.53% |      181760      7.25%     76.78% |      194333      7.75%     84.54% |      190120      7.59%     92.12% |      197422      7.88%    100.00% |           0      0.00%    100.00% |           0      0.00%    100.00% |           0      0.00%    100.00% |           0      0.00%    100.00% |           0      0.00%    100.00% |           0      0.00%    100.00% |           0      0.00%    100.00% |           0      0.00%    100.00% |           0      0.00%    100.00% |           0      0.00%    100.00% |           0      0.00%    100.00% |           0      0.00%    100.00% |           0      0.00%    100.00% |           0      0.00%    100.00% |           0      0.00%    100.00% |           0      0.00%    100.00% |           0      0.00%    100.00% |           0      0.00%    100.00% |           0      0.00%    100.00% |           0      0.00%    100.00% |           0      0.00%    100.00% |           0      0.00%    100.00% |           0      0.00%    100.00% |           0      0.00%    100.00% |           0      0.00%    100.00% |           0      0.00%    100.00%
system.ruby.SimicsNetworkPortInterface_Controller.MessageRecv::total      2506230                      
system.ruby.SimicsNetworkPortInterface_Controller.A.MessageSend |      489480     19.53%     19.53% |     1253115     50.00%     69.53% |      181760      7.25%     76.78% |      194333      7.75%     84.54% |      190120      7.59%     92.12% |      197422      7.88%    100.00% |           0      0.00%    100.00% |           0      0.00%    100.00% |           0      0.00%    100.00% |           0      0.00%    100.00% |           0      0.00%    100.00% |           0      0.00%    100.00% |           0      0.00%    100.00% |           0      0.00%    100.00% |           0      0.00%    100.00% |           0      0.00%    100.00% |           0      0.00%    100.00% |           0      0.00%    100.00% |           0      0.00%    100.00% |           0      0.00%    100.00% |           0      0.00%    100.00% |           0      0.00%    100.00% |           0      0.00%    100.00% |           0      0.00%    100.00% |           0      0.00%    100.00% |           0      0.00%    100.00% |           0      0.00%    100.00% |           0      0.00%    100.00% |           0      0.00%    100.00% |           0      0.00%    100.00% |           0      0.00%    100.00% |           0      0.00%    100.00%
system.ruby.SimicsNetworkPortInterface_Controller.A.MessageSend::total      2506230                      
system.ruby.SimicsNetworkPortInterface_Controller.A.MessageRecv |      489480     19.53%     19.53% |     1253115     50.00%     69.53% |      181760      7.25%     76.78% |      194333      7.75%     84.54% |      190120      7.59%     92.12% |      197422      7.88%    100.00% |           0      0.00%    100.00% |           0      0.00%    100.00% |           0      0.00%    100.00% |           0      0.00%    100.00% |           0      0.00%    100.00% |           0      0.00%    100.00% |           0      0.00%    100.00% |           0      0.00%    100.00% |           0      0.00%    100.00% |           0      0.00%    100.00% |           0      0.00%    100.00% |           0      0.00%    100.00% |           0      0.00%    100.00% |           0      0.00%    100.00% |           0      0.00%    100.00% |           0      0.00%    100.00% |           0      0.00%    100.00% |           0      0.00%    100.00% |           0      0.00%    100.00% |           0      0.00%    100.00% |           0      0.00%    100.00% |           0      0.00%    100.00% |           0      0.00%    100.00% |           0      0.00%    100.00% |           0      0.00%    100.00% |           0      0.00%    100.00%
system.ruby.SimicsNetworkPortInterface_Controller.A.MessageRecv::total      2506230                      
system.switch_cpus.kern.inst.arm                    0                       # number of arm instructions executed
system.switch_cpus.kern.inst.quiesce                0                       # number of quiesce instructions executed

---------- End Simulation Statistics   ----------
