
---------- Begin Simulation Statistics ----------
sim_seconds                                  0.062641                       # Number of seconds simulated
sim_ticks                                 62641215500                       # Number of ticks simulated
final_tick                               5238809294000                       # Number of ticks from beginning of simulation (restored from checkpoints and never reset)
sim_freq                                 1000000000000                       # Frequency of simulated ticks
host_inst_rate                                  77448                       # Simulator instruction rate (inst/s)
host_op_rate                                   128820                       # Simulator op (including micro ops) rate (op/s)
host_tick_rate                               90674671                       # Simulator tick rate (ticks/s)
host_mem_usage                                4613344                       # Number of bytes of host memory used
host_seconds                                   690.83                       # Real time elapsed on the host
sim_insts                                    53503812                       # Number of instructions simulated
sim_ops                                      88993151                       # Number of ops (including micro ops) simulated
system.voltage_domain.voltage                       1                       # Voltage in Volts
system.clk_domain.clock                           500                       # Clock period in ticks
system.mem_ctrls0.bytes_read::ruby.dir_cntrl0      4974336                       # Number of bytes read from this memory
system.mem_ctrls0.bytes_read::total           4974336                       # Number of bytes read from this memory
system.mem_ctrls0.bytes_written::ruby.dir_cntrl0      3964224                       # Number of bytes written to this memory
system.mem_ctrls0.bytes_written::total        3964224                       # Number of bytes written to this memory
system.mem_ctrls0.num_reads::ruby.dir_cntrl0        77724                       # Number of read requests responded to by this memory
system.mem_ctrls0.num_reads::total              77724                       # Number of read requests responded to by this memory
system.mem_ctrls0.num_writes::ruby.dir_cntrl0        61941                       # Number of write requests responded to by this memory
system.mem_ctrls0.num_writes::total             61941                       # Number of write requests responded to by this memory
system.mem_ctrls0.bw_read::ruby.dir_cntrl0     79409953                       # Total read bandwidth from this memory (bytes/s)
system.mem_ctrls0.bw_read::total             79409953                       # Total read bandwidth from this memory (bytes/s)
system.mem_ctrls0.bw_write::ruby.dir_cntrl0     63284596                       # Write bandwidth from this memory (bytes/s)
system.mem_ctrls0.bw_write::total            63284596                       # Write bandwidth from this memory (bytes/s)
system.mem_ctrls0.bw_total::ruby.dir_cntrl0    142694549                       # Total bandwidth to/from this memory (bytes/s)
system.mem_ctrls0.bw_total::total           142694549                       # Total bandwidth to/from this memory (bytes/s)
system.mem_ctrls0.readReqs                      77724                       # Number of read requests accepted
system.mem_ctrls0.writeReqs                     61941                       # Number of write requests accepted
system.mem_ctrls0.readBursts                    77724                       # Number of DRAM read bursts, including those serviced by the write queue
system.mem_ctrls0.writeBursts                   61941                       # Number of DRAM write bursts, including those merged in the write queue
system.mem_ctrls0.bytesReadDRAM               4972928                       # Total number of bytes read from DRAM
system.mem_ctrls0.bytesReadWrQ                   1408                       # Total number of bytes read from write queue
system.mem_ctrls0.bytesWritten                3964032                       # Total number of bytes written to DRAM
system.mem_ctrls0.bytesReadSys                4974336                       # Total read bytes from the system interface side
system.mem_ctrls0.bytesWrittenSys             3964224                       # Total written bytes from the system interface side
system.mem_ctrls0.servicedByWrQ                    22                       # Number of DRAM read bursts serviced by the write queue
system.mem_ctrls0.mergedWrBursts                    0                       # Number of DRAM write bursts merged with an existing one
system.mem_ctrls0.neitherReadNorWriteReqs            0                       # Number of requests that are neither read nor write
system.mem_ctrls0.perBankRdBursts::0             4395                       # Per bank write bursts
system.mem_ctrls0.perBankRdBursts::1             4846                       # Per bank write bursts
system.mem_ctrls0.perBankRdBursts::2             4573                       # Per bank write bursts
system.mem_ctrls0.perBankRdBursts::3             4966                       # Per bank write bursts
system.mem_ctrls0.perBankRdBursts::4             4841                       # Per bank write bursts
system.mem_ctrls0.perBankRdBursts::5             5360                       # Per bank write bursts
system.mem_ctrls0.perBankRdBursts::6             4959                       # Per bank write bursts
system.mem_ctrls0.perBankRdBursts::7             5226                       # Per bank write bursts
system.mem_ctrls0.perBankRdBursts::8             5056                       # Per bank write bursts
system.mem_ctrls0.perBankRdBursts::9             5194                       # Per bank write bursts
system.mem_ctrls0.perBankRdBursts::10            4641                       # Per bank write bursts
system.mem_ctrls0.perBankRdBursts::11            4795                       # Per bank write bursts
system.mem_ctrls0.perBankRdBursts::12            4581                       # Per bank write bursts
system.mem_ctrls0.perBankRdBursts::13            4643                       # Per bank write bursts
system.mem_ctrls0.perBankRdBursts::14            4807                       # Per bank write bursts
system.mem_ctrls0.perBankRdBursts::15            4819                       # Per bank write bursts
system.mem_ctrls0.perBankWrBursts::0             3623                       # Per bank write bursts
system.mem_ctrls0.perBankWrBursts::1             3561                       # Per bank write bursts
system.mem_ctrls0.perBankWrBursts::2             3658                       # Per bank write bursts
system.mem_ctrls0.perBankWrBursts::3             3794                       # Per bank write bursts
system.mem_ctrls0.perBankWrBursts::4             3851                       # Per bank write bursts
system.mem_ctrls0.perBankWrBursts::5             4192                       # Per bank write bursts
system.mem_ctrls0.perBankWrBursts::6             3914                       # Per bank write bursts
system.mem_ctrls0.perBankWrBursts::7             4184                       # Per bank write bursts
system.mem_ctrls0.perBankWrBursts::8             4053                       # Per bank write bursts
system.mem_ctrls0.perBankWrBursts::9             4127                       # Per bank write bursts
system.mem_ctrls0.perBankWrBursts::10            3709                       # Per bank write bursts
system.mem_ctrls0.perBankWrBursts::11            3641                       # Per bank write bursts
system.mem_ctrls0.perBankWrBursts::12            3782                       # Per bank write bursts
system.mem_ctrls0.perBankWrBursts::13            3908                       # Per bank write bursts
system.mem_ctrls0.perBankWrBursts::14            4031                       # Per bank write bursts
system.mem_ctrls0.perBankWrBursts::15            3910                       # Per bank write bursts
system.mem_ctrls0.numRdRetry                        0                       # Number of times read queue was full causing retry
system.mem_ctrls0.numWrRetry                        0                       # Number of times write queue was full causing retry
system.mem_ctrls0.totGap                  62640721500                       # Total gap between requests
system.mem_ctrls0.readPktSize::0                    0                       # Read request sizes (log2)
system.mem_ctrls0.readPktSize::1                    0                       # Read request sizes (log2)
system.mem_ctrls0.readPktSize::2                    0                       # Read request sizes (log2)
system.mem_ctrls0.readPktSize::3                    0                       # Read request sizes (log2)
system.mem_ctrls0.readPktSize::4                    0                       # Read request sizes (log2)
system.mem_ctrls0.readPktSize::5                    0                       # Read request sizes (log2)
system.mem_ctrls0.readPktSize::6                77724                       # Read request sizes (log2)
system.mem_ctrls0.writePktSize::0                   0                       # Write request sizes (log2)
system.mem_ctrls0.writePktSize::1                   0                       # Write request sizes (log2)
system.mem_ctrls0.writePktSize::2                   0                       # Write request sizes (log2)
system.mem_ctrls0.writePktSize::3                   0                       # Write request sizes (log2)
system.mem_ctrls0.writePktSize::4                   0                       # Write request sizes (log2)
system.mem_ctrls0.writePktSize::5                   0                       # Write request sizes (log2)
system.mem_ctrls0.writePktSize::6               61941                       # Write request sizes (log2)
system.mem_ctrls0.rdQLenPdf::0                  75925                       # What read queue length does an incoming req see
system.mem_ctrls0.rdQLenPdf::1                   1504                       # What read queue length does an incoming req see
system.mem_ctrls0.rdQLenPdf::2                    260                       # What read queue length does an incoming req see
system.mem_ctrls0.rdQLenPdf::3                     10                       # What read queue length does an incoming req see
system.mem_ctrls0.rdQLenPdf::4                      3                       # What read queue length does an incoming req see
system.mem_ctrls0.rdQLenPdf::5                      0                       # What read queue length does an incoming req see
system.mem_ctrls0.rdQLenPdf::6                      0                       # What read queue length does an incoming req see
system.mem_ctrls0.rdQLenPdf::7                      0                       # What read queue length does an incoming req see
system.mem_ctrls0.rdQLenPdf::8                      0                       # What read queue length does an incoming req see
system.mem_ctrls0.rdQLenPdf::9                      0                       # What read queue length does an incoming req see
system.mem_ctrls0.rdQLenPdf::10                     0                       # What read queue length does an incoming req see
system.mem_ctrls0.rdQLenPdf::11                     0                       # What read queue length does an incoming req see
system.mem_ctrls0.rdQLenPdf::12                     0                       # What read queue length does an incoming req see
system.mem_ctrls0.rdQLenPdf::13                     0                       # What read queue length does an incoming req see
system.mem_ctrls0.rdQLenPdf::14                     0                       # What read queue length does an incoming req see
system.mem_ctrls0.rdQLenPdf::15                     0                       # What read queue length does an incoming req see
system.mem_ctrls0.rdQLenPdf::16                     0                       # What read queue length does an incoming req see
system.mem_ctrls0.rdQLenPdf::17                     0                       # What read queue length does an incoming req see
system.mem_ctrls0.rdQLenPdf::18                     0                       # What read queue length does an incoming req see
system.mem_ctrls0.rdQLenPdf::19                     0                       # What read queue length does an incoming req see
system.mem_ctrls0.rdQLenPdf::20                     0                       # What read queue length does an incoming req see
system.mem_ctrls0.rdQLenPdf::21                     0                       # What read queue length does an incoming req see
system.mem_ctrls0.rdQLenPdf::22                     0                       # What read queue length does an incoming req see
system.mem_ctrls0.rdQLenPdf::23                     0                       # What read queue length does an incoming req see
system.mem_ctrls0.rdQLenPdf::24                     0                       # What read queue length does an incoming req see
system.mem_ctrls0.rdQLenPdf::25                     0                       # What read queue length does an incoming req see
system.mem_ctrls0.rdQLenPdf::26                     0                       # What read queue length does an incoming req see
system.mem_ctrls0.rdQLenPdf::27                     0                       # What read queue length does an incoming req see
system.mem_ctrls0.rdQLenPdf::28                     0                       # What read queue length does an incoming req see
system.mem_ctrls0.rdQLenPdf::29                     0                       # What read queue length does an incoming req see
system.mem_ctrls0.rdQLenPdf::30                     0                       # What read queue length does an incoming req see
system.mem_ctrls0.rdQLenPdf::31                     0                       # What read queue length does an incoming req see
system.mem_ctrls0.wrQLenPdf::0                  12321                       # What write queue length does an incoming req see
system.mem_ctrls0.wrQLenPdf::1                  12467                       # What write queue length does an incoming req see
system.mem_ctrls0.wrQLenPdf::2                  12437                       # What write queue length does an incoming req see
system.mem_ctrls0.wrQLenPdf::3                  12350                       # What write queue length does an incoming req see
system.mem_ctrls0.wrQLenPdf::4                  12335                       # What write queue length does an incoming req see
system.mem_ctrls0.wrQLenPdf::5                     26                       # What write queue length does an incoming req see
system.mem_ctrls0.wrQLenPdf::6                      5                       # What write queue length does an incoming req see
system.mem_ctrls0.wrQLenPdf::7                      0                       # What write queue length does an incoming req see
system.mem_ctrls0.bytesPerActivate::samples        43145                       # Bytes accessed per row activation
system.mem_ctrls0.bytesPerActivate::mean   207.134824                       # Bytes accessed per row activation
system.mem_ctrls0.bytesPerActivate::gmean   150.208822                       # Bytes accessed per row activation
system.mem_ctrls0.bytesPerActivate::stdev   187.187395                       # Bytes accessed per row activation
system.mem_ctrls0.bytesPerActivate::0-127        16027     37.15%     37.15% # Bytes accessed per row activation
system.mem_ctrls0.bytesPerActivate::128-255        11593     26.87%     64.02% # Bytes accessed per row activation
system.mem_ctrls0.bytesPerActivate::256-383        10699     24.80%     88.81% # Bytes accessed per row activation
system.mem_ctrls0.bytesPerActivate::384-511         1777      4.12%     92.93% # Bytes accessed per row activation
system.mem_ctrls0.bytesPerActivate::512-639         1150      2.67%     95.60% # Bytes accessed per row activation
system.mem_ctrls0.bytesPerActivate::640-767          552      1.28%     96.88% # Bytes accessed per row activation
system.mem_ctrls0.bytesPerActivate::768-895          361      0.84%     97.71% # Bytes accessed per row activation
system.mem_ctrls0.bytesPerActivate::896-1023          406      0.94%     98.66% # Bytes accessed per row activation
system.mem_ctrls0.bytesPerActivate::1024-1151          580      1.34%    100.00% # Bytes accessed per row activation
system.mem_ctrls0.bytesPerActivate::total        43145                       # Bytes accessed per row activation
system.mem_ctrls0.rdPerTurnAround::samples        12320                       # Reads before turning the bus around for writes
system.mem_ctrls0.rdPerTurnAround::mean      6.306412                       # Reads before turning the bus around for writes
system.mem_ctrls0.rdPerTurnAround::stdev    36.396742                       # Reads before turning the bus around for writes
system.mem_ctrls0.rdPerTurnAround::0-127        12314     99.95%     99.95% # Reads before turning the bus around for writes
system.mem_ctrls0.rdPerTurnAround::128-255            5      0.04%     99.99% # Reads before turning the bus around for writes
system.mem_ctrls0.rdPerTurnAround::3968-4095            1      0.01%    100.00% # Reads before turning the bus around for writes
system.mem_ctrls0.rdPerTurnAround::total        12320                       # Reads before turning the bus around for writes
system.mem_ctrls0.wrPerTurnAround::samples        12320                       # Writes before turning the bus around for reads
system.mem_ctrls0.wrPerTurnAround::mean      5.027435                       # Writes before turning the bus around for reads
system.mem_ctrls0.wrPerTurnAround::gmean     5.024320                       # Writes before turning the bus around for reads
system.mem_ctrls0.wrPerTurnAround::stdev     0.195478                       # Writes before turning the bus around for reads
system.mem_ctrls0.wrPerTurnAround::4-5          12035     97.69%     97.69% # Writes before turning the bus around for reads
system.mem_ctrls0.wrPerTurnAround::6-7            272      2.21%     99.89% # Writes before turning the bus around for reads
system.mem_ctrls0.wrPerTurnAround::8-9             12      0.10%     99.99% # Writes before turning the bus around for reads
system.mem_ctrls0.wrPerTurnAround::10-11            1      0.01%    100.00% # Writes before turning the bus around for reads
system.mem_ctrls0.wrPerTurnAround::total        12320                       # Writes before turning the bus around for reads
system.mem_ctrls0.totQLat                   777289750                       # Total ticks spent queuing
system.mem_ctrls0.totMemAccLat             2234202250                       # Total ticks spent from burst creation until serviced by the DRAM
system.mem_ctrls0.totBusLat                 388510000                       # Total ticks spent in databus transfers
system.mem_ctrls0.avgQLat                    10003.47                       # Average queueing delay per DRAM burst
system.mem_ctrls0.avgBusLat                   5000.00                       # Average bus latency per DRAM burst
system.mem_ctrls0.avgMemAccLat               28753.47                       # Average memory access latency per DRAM burst
system.mem_ctrls0.avgRdBW                       79.39                       # Average DRAM read bandwidth in MiByte/s
system.mem_ctrls0.avgWrBW                       63.28                       # Average achieved write bandwidth in MiByte/s
system.mem_ctrls0.avgRdBWSys                    79.41                       # Average system read bandwidth in MiByte/s
system.mem_ctrls0.avgWrBWSys                    63.28                       # Average system write bandwidth in MiByte/s
system.mem_ctrls0.peakBW                     12800.00                       # Theoretical peak bandwidth in MiByte/s
system.mem_ctrls0.busUtil                        1.11                       # Data bus utilization in percentage
system.mem_ctrls0.busUtilRead                    0.62                       # Data bus utilization in percentage for reads
system.mem_ctrls0.busUtilWrite                   0.49                       # Data bus utilization in percentage for writes
system.mem_ctrls0.avgRdQLen                      1.03                       # Average read queue length when enqueuing
system.mem_ctrls0.avgWrQLen                      2.91                       # Average write queue length when enqueuing
system.mem_ctrls0.readRowHits                   56615                       # Number of row buffer hits during reads
system.mem_ctrls0.writeRowHits                  39878                       # Number of row buffer hits during writes
system.mem_ctrls0.readRowHitRate                72.86                       # Row buffer hit rate for reads
system.mem_ctrls0.writeRowHitRate               64.38                       # Row buffer hit rate for writes
system.mem_ctrls0.avgGap                    448506.94                       # Average gap between requests
system.mem_ctrls0.pageHitRate                   69.10                       # Row buffer hit rate, read and write combined
system.mem_ctrls0.memoryStateTime::IDLE   12697214750                       # Time in different power states
system.mem_ctrls0.memoryStateTime::REF     2091700000                       # Time in different power states
system.mem_ctrls0.memoryStateTime::PRE_PDN            0                       # Time in different power states
system.mem_ctrls0.memoryStateTime::ACT    47851848250                       # Time in different power states
system.mem_ctrls0.memoryStateTime::ACT_PDN            0                       # Time in different power states
system.mem_ctrls0.actEnergy::0              164800440                       # Energy for activate commands per rank (pJ)
system.mem_ctrls0.actEnergy::1              161375760                       # Energy for activate commands per rank (pJ)
system.mem_ctrls0.preEnergy::0               89920875                       # Energy for precharge commands per rank (pJ)
system.mem_ctrls0.preEnergy::1               88052250                       # Energy for precharge commands per rank (pJ)
system.mem_ctrls0.readEnergy::0             305494800                       # Energy for read commands per rank (pJ)
system.mem_ctrls0.readEnergy::1             300565200                       # Energy for read commands per rank (pJ)
system.mem_ctrls0.writeEnergy::0            199434960                       # Energy for write commands per rank (pJ)
system.mem_ctrls0.writeEnergy::1            201923280                       # Energy for write commands per rank (pJ)
system.mem_ctrls0.refreshEnergy::0         4091365200                       # Energy for refresh commands per rank (pJ)
system.mem_ctrls0.refreshEnergy::1         4091365200                       # Energy for refresh commands per rank (pJ)
system.mem_ctrls0.actBackEnergy::0        26095959450                       # Energy for active background per rank (pJ)
system.mem_ctrls0.actBackEnergy::1        25710209100                       # Energy for active background per rank (pJ)
system.mem_ctrls0.preBackEnergy::0        14693192250                       # Energy for precharge background per rank (pJ)
system.mem_ctrls0.preBackEnergy::1        15031569750                       # Energy for precharge background per rank (pJ)
system.mem_ctrls0.totalEnergy::0          45640167975                       # Total energy per rank (pJ)
system.mem_ctrls0.totalEnergy::1          45585060540                       # Total energy per rank (pJ)
system.mem_ctrls0.averagePower::0          728.603141                       # Core power per rank (mW)
system.mem_ctrls0.averagePower::1          727.723402                       # Core power per rank (mW)
system.mem_ctrls1.bytes_read::ruby.dir_cntrl1      4889536                       # Number of bytes read from this memory
system.mem_ctrls1.bytes_read::total           4889536                       # Number of bytes read from this memory
system.mem_ctrls1.bytes_written::ruby.dir_cntrl1      3886592                       # Number of bytes written to this memory
system.mem_ctrls1.bytes_written::total        3886592                       # Number of bytes written to this memory
system.mem_ctrls1.num_reads::ruby.dir_cntrl1        76399                       # Number of read requests responded to by this memory
system.mem_ctrls1.num_reads::total              76399                       # Number of read requests responded to by this memory
system.mem_ctrls1.num_writes::ruby.dir_cntrl1        60728                       # Number of write requests responded to by this memory
system.mem_ctrls1.num_writes::total             60728                       # Number of write requests responded to by this memory
system.mem_ctrls1.bw_read::ruby.dir_cntrl1     78056212                       # Total read bandwidth from this memory (bytes/s)
system.mem_ctrls1.bw_read::total             78056212                       # Total read bandwidth from this memory (bytes/s)
system.mem_ctrls1.bw_write::ruby.dir_cntrl1     62045284                       # Write bandwidth from this memory (bytes/s)
system.mem_ctrls1.bw_write::total            62045284                       # Write bandwidth from this memory (bytes/s)
system.mem_ctrls1.bw_total::ruby.dir_cntrl1    140101496                       # Total bandwidth to/from this memory (bytes/s)
system.mem_ctrls1.bw_total::total           140101496                       # Total bandwidth to/from this memory (bytes/s)
system.mem_ctrls1.readReqs                      76399                       # Number of read requests accepted
system.mem_ctrls1.writeReqs                     60728                       # Number of write requests accepted
system.mem_ctrls1.readBursts                    76399                       # Number of DRAM read bursts, including those serviced by the write queue
system.mem_ctrls1.writeBursts                   60728                       # Number of DRAM write bursts, including those merged in the write queue
system.mem_ctrls1.bytesReadDRAM               4888640                       # Total number of bytes read from DRAM
system.mem_ctrls1.bytesReadWrQ                    896                       # Total number of bytes read from write queue
system.mem_ctrls1.bytesWritten                3886592                       # Total number of bytes written to DRAM
system.mem_ctrls1.bytesReadSys                4889536                       # Total read bytes from the system interface side
system.mem_ctrls1.bytesWrittenSys             3886592                       # Total written bytes from the system interface side
system.mem_ctrls1.servicedByWrQ                    14                       # Number of DRAM read bursts serviced by the write queue
system.mem_ctrls1.mergedWrBursts                    0                       # Number of DRAM write bursts merged with an existing one
system.mem_ctrls1.neitherReadNorWriteReqs            0                       # Number of requests that are neither read nor write
system.mem_ctrls1.perBankRdBursts::0             4324                       # Per bank write bursts
system.mem_ctrls1.perBankRdBursts::1             4761                       # Per bank write bursts
system.mem_ctrls1.perBankRdBursts::2             4491                       # Per bank write bursts
system.mem_ctrls1.perBankRdBursts::3             4894                       # Per bank write bursts
system.mem_ctrls1.perBankRdBursts::4             4782                       # Per bank write bursts
system.mem_ctrls1.perBankRdBursts::5             5309                       # Per bank write bursts
system.mem_ctrls1.perBankRdBursts::6             4900                       # Per bank write bursts
system.mem_ctrls1.perBankRdBursts::7             5164                       # Per bank write bursts
system.mem_ctrls1.perBankRdBursts::8             4953                       # Per bank write bursts
system.mem_ctrls1.perBankRdBursts::9             5091                       # Per bank write bursts
system.mem_ctrls1.perBankRdBursts::10            4537                       # Per bank write bursts
system.mem_ctrls1.perBankRdBursts::11            4727                       # Per bank write bursts
system.mem_ctrls1.perBankRdBursts::12            4488                       # Per bank write bursts
system.mem_ctrls1.perBankRdBursts::13            4580                       # Per bank write bursts
system.mem_ctrls1.perBankRdBursts::14            4639                       # Per bank write bursts
system.mem_ctrls1.perBankRdBursts::15            4745                       # Per bank write bursts
system.mem_ctrls1.perBankWrBursts::0             3555                       # Per bank write bursts
system.mem_ctrls1.perBankWrBursts::1             3507                       # Per bank write bursts
system.mem_ctrls1.perBankWrBursts::2             3600                       # Per bank write bursts
system.mem_ctrls1.perBankWrBursts::3             3743                       # Per bank write bursts
system.mem_ctrls1.perBankWrBursts::4             3788                       # Per bank write bursts
system.mem_ctrls1.perBankWrBursts::5             4126                       # Per bank write bursts
system.mem_ctrls1.perBankWrBursts::6             3835                       # Per bank write bursts
system.mem_ctrls1.perBankWrBursts::7             4097                       # Per bank write bursts
system.mem_ctrls1.perBankWrBursts::8             3967                       # Per bank write bursts
system.mem_ctrls1.perBankWrBursts::9             4032                       # Per bank write bursts
system.mem_ctrls1.perBankWrBursts::10            3626                       # Per bank write bursts
system.mem_ctrls1.perBankWrBursts::11            3570                       # Per bank write bursts
system.mem_ctrls1.perBankWrBursts::12            3711                       # Per bank write bursts
system.mem_ctrls1.perBankWrBursts::13            3832                       # Per bank write bursts
system.mem_ctrls1.perBankWrBursts::14            3901                       # Per bank write bursts
system.mem_ctrls1.perBankWrBursts::15            3838                       # Per bank write bursts
system.mem_ctrls1.numRdRetry                        0                       # Number of times read queue was full causing retry
system.mem_ctrls1.numWrRetry                        0                       # Number of times write queue was full causing retry
system.mem_ctrls1.totGap                  62640474000                       # Total gap between requests
system.mem_ctrls1.readPktSize::0                    0                       # Read request sizes (log2)
system.mem_ctrls1.readPktSize::1                    0                       # Read request sizes (log2)
system.mem_ctrls1.readPktSize::2                    0                       # Read request sizes (log2)
system.mem_ctrls1.readPktSize::3                    0                       # Read request sizes (log2)
system.mem_ctrls1.readPktSize::4                    0                       # Read request sizes (log2)
system.mem_ctrls1.readPktSize::5                    0                       # Read request sizes (log2)
system.mem_ctrls1.readPktSize::6                76399                       # Read request sizes (log2)
system.mem_ctrls1.writePktSize::0                   0                       # Write request sizes (log2)
system.mem_ctrls1.writePktSize::1                   0                       # Write request sizes (log2)
system.mem_ctrls1.writePktSize::2                   0                       # Write request sizes (log2)
system.mem_ctrls1.writePktSize::3                   0                       # Write request sizes (log2)
system.mem_ctrls1.writePktSize::4                   0                       # Write request sizes (log2)
system.mem_ctrls1.writePktSize::5                   0                       # Write request sizes (log2)
system.mem_ctrls1.writePktSize::6               60728                       # Write request sizes (log2)
system.mem_ctrls1.rdQLenPdf::0                  75270                       # What read queue length does an incoming req see
system.mem_ctrls1.rdQLenPdf::1                   1046                       # What read queue length does an incoming req see
system.mem_ctrls1.rdQLenPdf::2                     55                       # What read queue length does an incoming req see
system.mem_ctrls1.rdQLenPdf::3                     14                       # What read queue length does an incoming req see
system.mem_ctrls1.rdQLenPdf::4                      0                       # What read queue length does an incoming req see
system.mem_ctrls1.rdQLenPdf::5                      0                       # What read queue length does an incoming req see
system.mem_ctrls1.rdQLenPdf::6                      0                       # What read queue length does an incoming req see
system.mem_ctrls1.rdQLenPdf::7                      0                       # What read queue length does an incoming req see
system.mem_ctrls1.rdQLenPdf::8                      0                       # What read queue length does an incoming req see
system.mem_ctrls1.rdQLenPdf::9                      0                       # What read queue length does an incoming req see
system.mem_ctrls1.rdQLenPdf::10                     0                       # What read queue length does an incoming req see
system.mem_ctrls1.rdQLenPdf::11                     0                       # What read queue length does an incoming req see
system.mem_ctrls1.rdQLenPdf::12                     0                       # What read queue length does an incoming req see
system.mem_ctrls1.rdQLenPdf::13                     0                       # What read queue length does an incoming req see
system.mem_ctrls1.rdQLenPdf::14                     0                       # What read queue length does an incoming req see
system.mem_ctrls1.rdQLenPdf::15                     0                       # What read queue length does an incoming req see
system.mem_ctrls1.rdQLenPdf::16                     0                       # What read queue length does an incoming req see
system.mem_ctrls1.rdQLenPdf::17                     0                       # What read queue length does an incoming req see
system.mem_ctrls1.rdQLenPdf::18                     0                       # What read queue length does an incoming req see
system.mem_ctrls1.rdQLenPdf::19                     0                       # What read queue length does an incoming req see
system.mem_ctrls1.rdQLenPdf::20                     0                       # What read queue length does an incoming req see
system.mem_ctrls1.rdQLenPdf::21                     0                       # What read queue length does an incoming req see
system.mem_ctrls1.rdQLenPdf::22                     0                       # What read queue length does an incoming req see
system.mem_ctrls1.rdQLenPdf::23                     0                       # What read queue length does an incoming req see
system.mem_ctrls1.rdQLenPdf::24                     0                       # What read queue length does an incoming req see
system.mem_ctrls1.rdQLenPdf::25                     0                       # What read queue length does an incoming req see
system.mem_ctrls1.rdQLenPdf::26                     0                       # What read queue length does an incoming req see
system.mem_ctrls1.rdQLenPdf::27                     0                       # What read queue length does an incoming req see
system.mem_ctrls1.rdQLenPdf::28                     0                       # What read queue length does an incoming req see
system.mem_ctrls1.rdQLenPdf::29                     0                       # What read queue length does an incoming req see
system.mem_ctrls1.rdQLenPdf::30                     0                       # What read queue length does an incoming req see
system.mem_ctrls1.rdQLenPdf::31                     0                       # What read queue length does an incoming req see
system.mem_ctrls1.wrQLenPdf::0                  12101                       # What write queue length does an incoming req see
system.mem_ctrls1.wrQLenPdf::1                  12190                       # What write queue length does an incoming req see
system.mem_ctrls1.wrQLenPdf::2                  12155                       # What write queue length does an incoming req see
system.mem_ctrls1.wrQLenPdf::3                  12119                       # What write queue length does an incoming req see
system.mem_ctrls1.wrQLenPdf::4                  12111                       # What write queue length does an incoming req see
system.mem_ctrls1.wrQLenPdf::5                     43                       # What write queue length does an incoming req see
system.mem_ctrls1.wrQLenPdf::6                      8                       # What write queue length does an incoming req see
system.mem_ctrls1.wrQLenPdf::7                      1                       # What write queue length does an incoming req see
system.mem_ctrls1.bytesPerActivate::samples        40639                       # Bytes accessed per row activation
system.mem_ctrls1.bytesPerActivate::mean   215.921848                       # Bytes accessed per row activation
system.mem_ctrls1.bytesPerActivate::gmean   157.357869                       # Bytes accessed per row activation
system.mem_ctrls1.bytesPerActivate::stdev   190.794133                       # Bytes accessed per row activation
system.mem_ctrls1.bytesPerActivate::0-127        13919     34.25%     34.25% # Bytes accessed per row activation
system.mem_ctrls1.bytesPerActivate::128-255        11202     27.56%     61.82% # Bytes accessed per row activation
system.mem_ctrls1.bytesPerActivate::256-383        10655     26.22%     88.03% # Bytes accessed per row activation
system.mem_ctrls1.bytesPerActivate::384-511         1760      4.33%     92.36% # Bytes accessed per row activation
system.mem_ctrls1.bytesPerActivate::512-639         1151      2.83%     95.20% # Bytes accessed per row activation
system.mem_ctrls1.bytesPerActivate::640-767          594      1.46%     96.66% # Bytes accessed per row activation
system.mem_ctrls1.bytesPerActivate::768-895          378      0.93%     97.59% # Bytes accessed per row activation
system.mem_ctrls1.bytesPerActivate::896-1023          396      0.97%     98.56% # Bytes accessed per row activation
system.mem_ctrls1.bytesPerActivate::1024-1151          584      1.44%    100.00% # Bytes accessed per row activation
system.mem_ctrls1.bytesPerActivate::total        40639                       # Bytes accessed per row activation
system.mem_ctrls1.rdPerTurnAround::samples        12101                       # Reads before turning the bus around for writes
system.mem_ctrls1.rdPerTurnAround::mean      6.312288                       # Reads before turning the bus around for writes
system.mem_ctrls1.rdPerTurnAround::stdev    28.963829                       # Reads before turning the bus around for writes
system.mem_ctrls1.rdPerTurnAround::0-127        12096     99.96%     99.96% # Reads before turning the bus around for writes
system.mem_ctrls1.rdPerTurnAround::128-255            3      0.02%     99.98% # Reads before turning the bus around for writes
system.mem_ctrls1.rdPerTurnAround::1152-1279            1      0.01%     99.99% # Reads before turning the bus around for writes
system.mem_ctrls1.rdPerTurnAround::2816-2943            1      0.01%    100.00% # Reads before turning the bus around for writes
system.mem_ctrls1.rdPerTurnAround::total        12101                       # Reads before turning the bus around for writes
system.mem_ctrls1.wrPerTurnAround::samples        12101                       # Writes before turning the bus around for reads
system.mem_ctrls1.wrPerTurnAround::mean      5.018428                       # Writes before turning the bus around for reads
system.mem_ctrls1.wrPerTurnAround::gmean     5.016493                       # Writes before turning the bus around for reads
system.mem_ctrls1.wrPerTurnAround::stdev     0.152362                       # Writes before turning the bus around for reads
system.mem_ctrls1.wrPerTurnAround::4-5          11901     98.35%     98.35% # Writes before turning the bus around for reads
system.mem_ctrls1.wrPerTurnAround::6-7            194      1.60%     99.95% # Writes before turning the bus around for reads
system.mem_ctrls1.wrPerTurnAround::8-9              6      0.05%    100.00% # Writes before turning the bus around for reads
system.mem_ctrls1.wrPerTurnAround::total        12101                       # Writes before turning the bus around for reads
system.mem_ctrls1.totQLat                   710621750                       # Total ticks spent queuing
system.mem_ctrls1.totMemAccLat             2142840500                       # Total ticks spent from burst creation until serviced by the DRAM
system.mem_ctrls1.totBusLat                 381925000                       # Total ticks spent in databus transfers
system.mem_ctrls1.avgQLat                     9303.16                       # Average queueing delay per DRAM burst
system.mem_ctrls1.avgBusLat                   5000.00                       # Average bus latency per DRAM burst
system.mem_ctrls1.avgMemAccLat               28053.16                       # Average memory access latency per DRAM burst
system.mem_ctrls1.avgRdBW                       78.04                       # Average DRAM read bandwidth in MiByte/s
system.mem_ctrls1.avgWrBW                       62.05                       # Average achieved write bandwidth in MiByte/s
system.mem_ctrls1.avgRdBWSys                    78.06                       # Average system read bandwidth in MiByte/s
system.mem_ctrls1.avgWrBWSys                    62.05                       # Average system write bandwidth in MiByte/s
system.mem_ctrls1.peakBW                     12800.00                       # Theoretical peak bandwidth in MiByte/s
system.mem_ctrls1.busUtil                        1.09                       # Data bus utilization in percentage
system.mem_ctrls1.busUtilRead                    0.61                       # Data bus utilization in percentage for reads
system.mem_ctrls1.busUtilWrite                   0.48                       # Data bus utilization in percentage for writes
system.mem_ctrls1.avgRdQLen                      1.01                       # Average read queue length when enqueuing
system.mem_ctrls1.avgWrQLen                      2.93                       # Average write queue length when enqueuing
system.mem_ctrls1.readRowHits                   56170                       # Number of row buffer hits during reads
system.mem_ctrls1.writeRowHits                  40298                       # Number of row buffer hits during writes
system.mem_ctrls1.readRowHitRate                73.54                       # Row buffer hit rate for reads
system.mem_ctrls1.writeRowHitRate               66.36                       # Row buffer hit rate for writes
system.mem_ctrls1.avgGap                    456806.27                       # Average gap between requests
system.mem_ctrls1.pageHitRate                   70.36                       # Row buffer hit rate, read and write combined
system.mem_ctrls1.memoryStateTime::IDLE   13308014750                       # Time in different power states
system.mem_ctrls1.memoryStateTime::REF     2091700000                       # Time in different power states
system.mem_ctrls1.memoryStateTime::PRE_PDN            0                       # Time in different power states
system.mem_ctrls1.memoryStateTime::ACT    47240940250                       # Time in different power states
system.mem_ctrls1.memoryStateTime::ACT_PDN            0                       # Time in different power states
system.mem_ctrls1.actEnergy::0              156658320                       # Energy for activate commands per rank (pJ)
system.mem_ctrls1.actEnergy::1              150557400                       # Energy for activate commands per rank (pJ)
system.mem_ctrls1.preEnergy::0               85478250                       # Energy for precharge commands per rank (pJ)
system.mem_ctrls1.preEnergy::1               82149375                       # Energy for precharge commands per rank (pJ)
system.mem_ctrls1.readEnergy::0             301267200                       # Energy for read commands per rank (pJ)
system.mem_ctrls1.readEnergy::1             294504600                       # Energy for read commands per rank (pJ)
system.mem_ctrls1.writeEnergy::0            196020000                       # Energy for write commands per rank (pJ)
system.mem_ctrls1.writeEnergy::1            197465040                       # Energy for write commands per rank (pJ)
system.mem_ctrls1.refreshEnergy::0         4091365200                       # Energy for refresh commands per rank (pJ)
system.mem_ctrls1.refreshEnergy::1         4091365200                       # Energy for refresh commands per rank (pJ)
system.mem_ctrls1.actBackEnergy::0        25682971365                       # Energy for active background per rank (pJ)
system.mem_ctrls1.actBackEnergy::1        25066797660                       # Energy for active background per rank (pJ)
system.mem_ctrls1.preBackEnergy::0        15055462500                       # Energy for precharge background per rank (pJ)
system.mem_ctrls1.preBackEnergy::1        15595965750                       # Energy for precharge background per rank (pJ)
system.mem_ctrls1.totalEnergy::0          45569222835                       # Total energy per rank (pJ)
system.mem_ctrls1.totalEnergy::1          45478805025                       # Total energy per rank (pJ)
system.mem_ctrls1.averagePower::0          727.470567                       # Core power per rank (mW)
system.mem_ctrls1.averagePower::1          726.027131                       # Core power per rank (mW)
system.mem_ctrls2.bytes_read::ruby.dir_cntrl2      4889152                       # Number of bytes read from this memory
system.mem_ctrls2.bytes_read::total           4889152                       # Number of bytes read from this memory
system.mem_ctrls2.bytes_written::ruby.dir_cntrl2      3887744                       # Number of bytes written to this memory
system.mem_ctrls2.bytes_written::total        3887744                       # Number of bytes written to this memory
system.mem_ctrls2.num_reads::ruby.dir_cntrl2        76393                       # Number of read requests responded to by this memory
system.mem_ctrls2.num_reads::total              76393                       # Number of read requests responded to by this memory
system.mem_ctrls2.num_writes::ruby.dir_cntrl2        60746                       # Number of write requests responded to by this memory
system.mem_ctrls2.num_writes::total             60746                       # Number of write requests responded to by this memory
system.mem_ctrls2.bw_read::ruby.dir_cntrl2     78050082                       # Total read bandwidth from this memory (bytes/s)
system.mem_ctrls2.bw_read::total             78050082                       # Total read bandwidth from this memory (bytes/s)
system.mem_ctrls2.bw_write::ruby.dir_cntrl2     62063674                       # Write bandwidth from this memory (bytes/s)
system.mem_ctrls2.bw_write::total            62063674                       # Write bandwidth from this memory (bytes/s)
system.mem_ctrls2.bw_total::ruby.dir_cntrl2    140113756                       # Total bandwidth to/from this memory (bytes/s)
system.mem_ctrls2.bw_total::total           140113756                       # Total bandwidth to/from this memory (bytes/s)
system.mem_ctrls2.readReqs                      76393                       # Number of read requests accepted
system.mem_ctrls2.writeReqs                     60746                       # Number of write requests accepted
system.mem_ctrls2.readBursts                    76393                       # Number of DRAM read bursts, including those serviced by the write queue
system.mem_ctrls2.writeBursts                   60746                       # Number of DRAM write bursts, including those merged in the write queue
system.mem_ctrls2.bytesReadDRAM               4888192                       # Total number of bytes read from DRAM
system.mem_ctrls2.bytesReadWrQ                    960                       # Total number of bytes read from write queue
system.mem_ctrls2.bytesWritten                3887680                       # Total number of bytes written to DRAM
system.mem_ctrls2.bytesReadSys                4889152                       # Total read bytes from the system interface side
system.mem_ctrls2.bytesWrittenSys             3887744                       # Total written bytes from the system interface side
system.mem_ctrls2.servicedByWrQ                    15                       # Number of DRAM read bursts serviced by the write queue
system.mem_ctrls2.mergedWrBursts                    0                       # Number of DRAM write bursts merged with an existing one
system.mem_ctrls2.neitherReadNorWriteReqs            0                       # Number of requests that are neither read nor write
system.mem_ctrls2.perBankRdBursts::0             4321                       # Per bank write bursts
system.mem_ctrls2.perBankRdBursts::1             4759                       # Per bank write bursts
system.mem_ctrls2.perBankRdBursts::2             4506                       # Per bank write bursts
system.mem_ctrls2.perBankRdBursts::3             4903                       # Per bank write bursts
system.mem_ctrls2.perBankRdBursts::4             4780                       # Per bank write bursts
system.mem_ctrls2.perBankRdBursts::5             5304                       # Per bank write bursts
system.mem_ctrls2.perBankRdBursts::6             4869                       # Per bank write bursts
system.mem_ctrls2.perBankRdBursts::7             5166                       # Per bank write bursts
system.mem_ctrls2.perBankRdBursts::8             4931                       # Per bank write bursts
system.mem_ctrls2.perBankRdBursts::9             5105                       # Per bank write bursts
system.mem_ctrls2.perBankRdBursts::10            4542                       # Per bank write bursts
system.mem_ctrls2.perBankRdBursts::11            4771                       # Per bank write bursts
system.mem_ctrls2.perBankRdBursts::12            4491                       # Per bank write bursts
system.mem_ctrls2.perBankRdBursts::13            4546                       # Per bank write bursts
system.mem_ctrls2.perBankRdBursts::14            4626                       # Per bank write bursts
system.mem_ctrls2.perBankRdBursts::15            4758                       # Per bank write bursts
system.mem_ctrls2.perBankWrBursts::0             3557                       # Per bank write bursts
system.mem_ctrls2.perBankWrBursts::1             3505                       # Per bank write bursts
system.mem_ctrls2.perBankWrBursts::2             3595                       # Per bank write bursts
system.mem_ctrls2.perBankWrBursts::3             3732                       # Per bank write bursts
system.mem_ctrls2.perBankWrBursts::4             3787                       # Per bank write bursts
system.mem_ctrls2.perBankWrBursts::5             4120                       # Per bank write bursts
system.mem_ctrls2.perBankWrBursts::6             3839                       # Per bank write bursts
system.mem_ctrls2.perBankWrBursts::7             4112                       # Per bank write bursts
system.mem_ctrls2.perBankWrBursts::8             3964                       # Per bank write bursts
system.mem_ctrls2.perBankWrBursts::9             4046                       # Per bank write bursts
system.mem_ctrls2.perBankWrBursts::10            3628                       # Per bank write bursts
system.mem_ctrls2.perBankWrBursts::11            3579                       # Per bank write bursts
system.mem_ctrls2.perBankWrBursts::12            3718                       # Per bank write bursts
system.mem_ctrls2.perBankWrBursts::13            3826                       # Per bank write bursts
system.mem_ctrls2.perBankWrBursts::14            3897                       # Per bank write bursts
system.mem_ctrls2.perBankWrBursts::15            3840                       # Per bank write bursts
system.mem_ctrls2.numRdRetry                        0                       # Number of times read queue was full causing retry
system.mem_ctrls2.numWrRetry                        0                       # Number of times write queue was full causing retry
system.mem_ctrls2.totGap                  62640959000                       # Total gap between requests
system.mem_ctrls2.readPktSize::0                    0                       # Read request sizes (log2)
system.mem_ctrls2.readPktSize::1                    0                       # Read request sizes (log2)
system.mem_ctrls2.readPktSize::2                    0                       # Read request sizes (log2)
system.mem_ctrls2.readPktSize::3                    0                       # Read request sizes (log2)
system.mem_ctrls2.readPktSize::4                    0                       # Read request sizes (log2)
system.mem_ctrls2.readPktSize::5                    0                       # Read request sizes (log2)
system.mem_ctrls2.readPktSize::6                76393                       # Read request sizes (log2)
system.mem_ctrls2.writePktSize::0                   0                       # Write request sizes (log2)
system.mem_ctrls2.writePktSize::1                   0                       # Write request sizes (log2)
system.mem_ctrls2.writePktSize::2                   0                       # Write request sizes (log2)
system.mem_ctrls2.writePktSize::3                   0                       # Write request sizes (log2)
system.mem_ctrls2.writePktSize::4                   0                       # Write request sizes (log2)
system.mem_ctrls2.writePktSize::5                   0                       # Write request sizes (log2)
system.mem_ctrls2.writePktSize::6               60746                       # Write request sizes (log2)
system.mem_ctrls2.rdQLenPdf::0                  75370                       # What read queue length does an incoming req see
system.mem_ctrls2.rdQLenPdf::1                    923                       # What read queue length does an incoming req see
system.mem_ctrls2.rdQLenPdf::2                     70                       # What read queue length does an incoming req see
system.mem_ctrls2.rdQLenPdf::3                     11                       # What read queue length does an incoming req see
system.mem_ctrls2.rdQLenPdf::4                      3                       # What read queue length does an incoming req see
system.mem_ctrls2.rdQLenPdf::5                      1                       # What read queue length does an incoming req see
system.mem_ctrls2.rdQLenPdf::6                      0                       # What read queue length does an incoming req see
system.mem_ctrls2.rdQLenPdf::7                      0                       # What read queue length does an incoming req see
system.mem_ctrls2.rdQLenPdf::8                      0                       # What read queue length does an incoming req see
system.mem_ctrls2.rdQLenPdf::9                      0                       # What read queue length does an incoming req see
system.mem_ctrls2.rdQLenPdf::10                     0                       # What read queue length does an incoming req see
system.mem_ctrls2.rdQLenPdf::11                     0                       # What read queue length does an incoming req see
system.mem_ctrls2.rdQLenPdf::12                     0                       # What read queue length does an incoming req see
system.mem_ctrls2.rdQLenPdf::13                     0                       # What read queue length does an incoming req see
system.mem_ctrls2.rdQLenPdf::14                     0                       # What read queue length does an incoming req see
system.mem_ctrls2.rdQLenPdf::15                     0                       # What read queue length does an incoming req see
system.mem_ctrls2.rdQLenPdf::16                     0                       # What read queue length does an incoming req see
system.mem_ctrls2.rdQLenPdf::17                     0                       # What read queue length does an incoming req see
system.mem_ctrls2.rdQLenPdf::18                     0                       # What read queue length does an incoming req see
system.mem_ctrls2.rdQLenPdf::19                     0                       # What read queue length does an incoming req see
system.mem_ctrls2.rdQLenPdf::20                     0                       # What read queue length does an incoming req see
system.mem_ctrls2.rdQLenPdf::21                     0                       # What read queue length does an incoming req see
system.mem_ctrls2.rdQLenPdf::22                     0                       # What read queue length does an incoming req see
system.mem_ctrls2.rdQLenPdf::23                     0                       # What read queue length does an incoming req see
system.mem_ctrls2.rdQLenPdf::24                     0                       # What read queue length does an incoming req see
system.mem_ctrls2.rdQLenPdf::25                     0                       # What read queue length does an incoming req see
system.mem_ctrls2.rdQLenPdf::26                     0                       # What read queue length does an incoming req see
system.mem_ctrls2.rdQLenPdf::27                     0                       # What read queue length does an incoming req see
system.mem_ctrls2.rdQLenPdf::28                     0                       # What read queue length does an incoming req see
system.mem_ctrls2.rdQLenPdf::29                     0                       # What read queue length does an incoming req see
system.mem_ctrls2.rdQLenPdf::30                     0                       # What read queue length does an incoming req see
system.mem_ctrls2.rdQLenPdf::31                     0                       # What read queue length does an incoming req see
system.mem_ctrls2.wrQLenPdf::0                  12110                       # What write queue length does an incoming req see
system.mem_ctrls2.wrQLenPdf::1                  12188                       # What write queue length does an incoming req see
system.mem_ctrls2.wrQLenPdf::2                  12156                       # What write queue length does an incoming req see
system.mem_ctrls2.wrQLenPdf::3                  12135                       # What write queue length does an incoming req see
system.mem_ctrls2.wrQLenPdf::4                  12111                       # What write queue length does an incoming req see
system.mem_ctrls2.wrQLenPdf::5                     40                       # What write queue length does an incoming req see
system.mem_ctrls2.wrQLenPdf::6                      5                       # What write queue length does an incoming req see
system.mem_ctrls2.wrQLenPdf::7                      1                       # What write queue length does an incoming req see
system.mem_ctrls2.bytesPerActivate::samples        40693                       # Bytes accessed per row activation
system.mem_ctrls2.bytesPerActivate::mean   215.655764                       # Bytes accessed per row activation
system.mem_ctrls2.bytesPerActivate::gmean   157.110837                       # Bytes accessed per row activation
system.mem_ctrls2.bytesPerActivate::stdev   190.870435                       # Bytes accessed per row activation
system.mem_ctrls2.bytesPerActivate::0-127        13984     34.36%     34.36% # Bytes accessed per row activation
system.mem_ctrls2.bytesPerActivate::128-255        11157     27.42%     61.78% # Bytes accessed per row activation
system.mem_ctrls2.bytesPerActivate::256-383        10714     26.33%     88.11% # Bytes accessed per row activation
system.mem_ctrls2.bytesPerActivate::384-511         1728      4.25%     92.36% # Bytes accessed per row activation
system.mem_ctrls2.bytesPerActivate::512-639         1160      2.85%     95.21% # Bytes accessed per row activation
system.mem_ctrls2.bytesPerActivate::640-767          554      1.36%     96.57% # Bytes accessed per row activation
system.mem_ctrls2.bytesPerActivate::768-895          424      1.04%     97.61% # Bytes accessed per row activation
system.mem_ctrls2.bytesPerActivate::896-1023          374      0.92%     98.53% # Bytes accessed per row activation
system.mem_ctrls2.bytesPerActivate::1024-1151          598      1.47%    100.00% # Bytes accessed per row activation
system.mem_ctrls2.bytesPerActivate::total        40693                       # Bytes accessed per row activation
system.mem_ctrls2.rdPerTurnAround::samples        12109                       # Reads before turning the bus around for writes
system.mem_ctrls2.rdPerTurnAround::mean      6.307210                       # Reads before turning the bus around for writes
system.mem_ctrls2.rdPerTurnAround::stdev    29.027255                       # Reads before turning the bus around for writes
system.mem_ctrls2.rdPerTurnAround::0-127        12104     99.96%     99.96% # Reads before turning the bus around for writes
system.mem_ctrls2.rdPerTurnAround::128-255            3      0.02%     99.98% # Reads before turning the bus around for writes
system.mem_ctrls2.rdPerTurnAround::1152-1279            1      0.01%     99.99% # Reads before turning the bus around for writes
system.mem_ctrls2.rdPerTurnAround::2816-2943            1      0.01%    100.00% # Reads before turning the bus around for writes
system.mem_ctrls2.rdPerTurnAround::total        12109                       # Reads before turning the bus around for writes
system.mem_ctrls2.wrPerTurnAround::samples        12109                       # Writes before turning the bus around for reads
system.mem_ctrls2.wrPerTurnAround::mean      5.016517                       # Writes before turning the bus around for reads
system.mem_ctrls2.wrPerTurnAround::gmean     5.014808                       # Writes before turning the bus around for reads
system.mem_ctrls2.wrPerTurnAround::stdev     0.142740                       # Writes before turning the bus around for reads
system.mem_ctrls2.wrPerTurnAround::4-5          11928     98.51%     98.51% # Writes before turning the bus around for reads
system.mem_ctrls2.wrPerTurnAround::6-7            177      1.46%     99.97% # Writes before turning the bus around for reads
system.mem_ctrls2.wrPerTurnAround::8-9              4      0.03%    100.00% # Writes before turning the bus around for reads
system.mem_ctrls2.wrPerTurnAround::total        12109                       # Writes before turning the bus around for reads
system.mem_ctrls2.totQLat                   724040750                       # Total ticks spent queuing
system.mem_ctrls2.totMemAccLat             2156128250                       # Total ticks spent from burst creation until serviced by the DRAM
system.mem_ctrls2.totBusLat                 381890000                       # Total ticks spent in databus transfers
system.mem_ctrls2.avgQLat                     9479.70                       # Average queueing delay per DRAM burst
system.mem_ctrls2.avgBusLat                   5000.00                       # Average bus latency per DRAM burst
system.mem_ctrls2.avgMemAccLat               28229.70                       # Average memory access latency per DRAM burst
system.mem_ctrls2.avgRdBW                       78.03                       # Average DRAM read bandwidth in MiByte/s
system.mem_ctrls2.avgWrBW                       62.06                       # Average achieved write bandwidth in MiByte/s
system.mem_ctrls2.avgRdBWSys                    78.05                       # Average system read bandwidth in MiByte/s
system.mem_ctrls2.avgWrBWSys                    62.06                       # Average system write bandwidth in MiByte/s
system.mem_ctrls2.peakBW                     12800.00                       # Theoretical peak bandwidth in MiByte/s
system.mem_ctrls2.busUtil                        1.09                       # Data bus utilization in percentage
system.mem_ctrls2.busUtilRead                    0.61                       # Data bus utilization in percentage for reads
system.mem_ctrls2.busUtilWrite                   0.48                       # Data bus utilization in percentage for writes
system.mem_ctrls2.avgRdQLen                      1.01                       # Average read queue length when enqueuing
system.mem_ctrls2.avgWrQLen                      2.95                       # Average write queue length when enqueuing
system.mem_ctrls2.readRowHits                   56133                       # Number of row buffer hits during reads
system.mem_ctrls2.writeRowHits                  40295                       # Number of row buffer hits during writes
system.mem_ctrls2.readRowHitRate                73.49                       # Row buffer hit rate for reads
system.mem_ctrls2.writeRowHitRate               66.33                       # Row buffer hit rate for writes
system.mem_ctrls2.avgGap                    456769.84                       # Average gap between requests
system.mem_ctrls2.pageHitRate                   70.32                       # Row buffer hit rate, read and write combined
system.mem_ctrls2.memoryStateTime::IDLE   13260408500                       # Time in different power states
system.mem_ctrls2.memoryStateTime::REF     2091700000                       # Time in different power states
system.mem_ctrls2.memoryStateTime::PRE_PDN            0                       # Time in different power states
system.mem_ctrls2.memoryStateTime::ACT    47288546500                       # Time in different power states
system.mem_ctrls2.memoryStateTime::ACT_PDN            0                       # Time in different power states
system.mem_ctrls2.actEnergy::0              156809520                       # Energy for activate commands per rank (pJ)
system.mem_ctrls2.actEnergy::1              150829560                       # Energy for activate commands per rank (pJ)
system.mem_ctrls2.preEnergy::0               85560750                       # Energy for precharge commands per rank (pJ)
system.mem_ctrls2.preEnergy::1               82297875                       # Energy for precharge commands per rank (pJ)
system.mem_ctrls2.readEnergy::0             301126800                       # Energy for read commands per rank (pJ)
system.mem_ctrls2.readEnergy::1             294598200                       # Energy for read commands per rank (pJ)
system.mem_ctrls2.writeEnergy::0            196000560                       # Energy for write commands per rank (pJ)
system.mem_ctrls2.writeEnergy::1            197627040                       # Energy for write commands per rank (pJ)
system.mem_ctrls2.refreshEnergy::0         4091365200                       # Energy for refresh commands per rank (pJ)
system.mem_ctrls2.refreshEnergy::1         4091365200                       # Energy for refresh commands per rank (pJ)
system.mem_ctrls2.actBackEnergy::0        25715216835                       # Energy for active background per rank (pJ)
system.mem_ctrls2.actBackEnergy::1        25284958605                       # Energy for active background per rank (pJ)
system.mem_ctrls2.preBackEnergy::0        15027177000                       # Energy for precharge background per rank (pJ)
system.mem_ctrls2.preBackEnergy::1        15404596500                       # Energy for precharge background per rank (pJ)
system.mem_ctrls2.totalEnergy::0          45573256665                       # Total energy per rank (pJ)
system.mem_ctrls2.totalEnergy::1          45506272980                       # Total energy per rank (pJ)
system.mem_ctrls2.averagePower::0          727.534964                       # Core power per rank (mW)
system.mem_ctrls2.averagePower::1          726.465631                       # Core power per rank (mW)
system.mem_ctrls3.bytes_read::ruby.dir_cntrl3      4864192                       # Number of bytes read from this memory
system.mem_ctrls3.bytes_read::total           4864192                       # Number of bytes read from this memory
system.mem_ctrls3.bytes_written::ruby.dir_cntrl3      3879488                       # Number of bytes written to this memory
system.mem_ctrls3.bytes_written::total        3879488                       # Number of bytes written to this memory
system.mem_ctrls3.num_reads::ruby.dir_cntrl3        76003                       # Number of read requests responded to by this memory
system.mem_ctrls3.num_reads::total              76003                       # Number of read requests responded to by this memory
system.mem_ctrls3.num_writes::ruby.dir_cntrl3        60617                       # Number of write requests responded to by this memory
system.mem_ctrls3.num_writes::total             60617                       # Number of write requests responded to by this memory
system.mem_ctrls3.bw_read::ruby.dir_cntrl3     77651622                       # Total read bandwidth from this memory (bytes/s)
system.mem_ctrls3.bw_read::total             77651622                       # Total read bandwidth from this memory (bytes/s)
system.mem_ctrls3.bw_write::ruby.dir_cntrl3     61931876                       # Write bandwidth from this memory (bytes/s)
system.mem_ctrls3.bw_write::total            61931876                       # Write bandwidth from this memory (bytes/s)
system.mem_ctrls3.bw_total::ruby.dir_cntrl3    139583498                       # Total bandwidth to/from this memory (bytes/s)
system.mem_ctrls3.bw_total::total           139583498                       # Total bandwidth to/from this memory (bytes/s)
system.mem_ctrls3.readReqs                      76003                       # Number of read requests accepted
system.mem_ctrls3.writeReqs                     60617                       # Number of write requests accepted
system.mem_ctrls3.readBursts                    76003                       # Number of DRAM read bursts, including those serviced by the write queue
system.mem_ctrls3.writeBursts                   60617                       # Number of DRAM write bursts, including those merged in the write queue
system.mem_ctrls3.bytesReadDRAM               4863552                       # Total number of bytes read from DRAM
system.mem_ctrls3.bytesReadWrQ                    640                       # Total number of bytes read from write queue
system.mem_ctrls3.bytesWritten                3879488                       # Total number of bytes written to DRAM
system.mem_ctrls3.bytesReadSys                4864192                       # Total read bytes from the system interface side
system.mem_ctrls3.bytesWrittenSys             3879488                       # Total written bytes from the system interface side
system.mem_ctrls3.servicedByWrQ                    10                       # Number of DRAM read bursts serviced by the write queue
system.mem_ctrls3.mergedWrBursts                    0                       # Number of DRAM write bursts merged with an existing one
system.mem_ctrls3.neitherReadNorWriteReqs            0                       # Number of requests that are neither read nor write
system.mem_ctrls3.perBankRdBursts::0             4296                       # Per bank write bursts
system.mem_ctrls3.perBankRdBursts::1             4732                       # Per bank write bursts
system.mem_ctrls3.perBankRdBursts::2             4446                       # Per bank write bursts
system.mem_ctrls3.perBankRdBursts::3             4860                       # Per bank write bursts
system.mem_ctrls3.perBankRdBursts::4             4728                       # Per bank write bursts
system.mem_ctrls3.perBankRdBursts::5             5253                       # Per bank write bursts
system.mem_ctrls3.perBankRdBursts::6             4876                       # Per bank write bursts
system.mem_ctrls3.perBankRdBursts::7             5146                       # Per bank write bursts
system.mem_ctrls3.perBankRdBursts::8             4931                       # Per bank write bursts
system.mem_ctrls3.perBankRdBursts::9             5074                       # Per bank write bursts
system.mem_ctrls3.perBankRdBursts::10            4542                       # Per bank write bursts
system.mem_ctrls3.perBankRdBursts::11            4732                       # Per bank write bursts
system.mem_ctrls3.perBankRdBursts::12            4473                       # Per bank write bursts
system.mem_ctrls3.perBankRdBursts::13            4526                       # Per bank write bursts
system.mem_ctrls3.perBankRdBursts::14            4647                       # Per bank write bursts
system.mem_ctrls3.perBankRdBursts::15            4731                       # Per bank write bursts
system.mem_ctrls3.perBankWrBursts::0             3553                       # Per bank write bursts
system.mem_ctrls3.perBankWrBursts::1             3498                       # Per bank write bursts
system.mem_ctrls3.perBankWrBursts::2             3578                       # Per bank write bursts
system.mem_ctrls3.perBankWrBursts::3             3718                       # Per bank write bursts
system.mem_ctrls3.perBankWrBursts::4             3778                       # Per bank write bursts
system.mem_ctrls3.perBankWrBursts::5             4105                       # Per bank write bursts
system.mem_ctrls3.perBankWrBursts::6             3828                       # Per bank write bursts
system.mem_ctrls3.perBankWrBursts::7             4092                       # Per bank write bursts
system.mem_ctrls3.perBankWrBursts::8             3970                       # Per bank write bursts
system.mem_ctrls3.perBankWrBursts::9             4036                       # Per bank write bursts
system.mem_ctrls3.perBankWrBursts::10            3618                       # Per bank write bursts
system.mem_ctrls3.perBankWrBursts::11            3583                       # Per bank write bursts
system.mem_ctrls3.perBankWrBursts::12            3709                       # Per bank write bursts
system.mem_ctrls3.perBankWrBursts::13            3827                       # Per bank write bursts
system.mem_ctrls3.perBankWrBursts::14            3897                       # Per bank write bursts
system.mem_ctrls3.perBankWrBursts::15            3827                       # Per bank write bursts
system.mem_ctrls3.numRdRetry                        0                       # Number of times read queue was full causing retry
system.mem_ctrls3.numWrRetry                        0                       # Number of times write queue was full causing retry
system.mem_ctrls3.totGap                  62640140000                       # Total gap between requests
system.mem_ctrls3.readPktSize::0                    0                       # Read request sizes (log2)
system.mem_ctrls3.readPktSize::1                    0                       # Read request sizes (log2)
system.mem_ctrls3.readPktSize::2                    0                       # Read request sizes (log2)
system.mem_ctrls3.readPktSize::3                    0                       # Read request sizes (log2)
system.mem_ctrls3.readPktSize::4                    0                       # Read request sizes (log2)
system.mem_ctrls3.readPktSize::5                    0                       # Read request sizes (log2)
system.mem_ctrls3.readPktSize::6                76003                       # Read request sizes (log2)
system.mem_ctrls3.writePktSize::0                   0                       # Write request sizes (log2)
system.mem_ctrls3.writePktSize::1                   0                       # Write request sizes (log2)
system.mem_ctrls3.writePktSize::2                   0                       # Write request sizes (log2)
system.mem_ctrls3.writePktSize::3                   0                       # Write request sizes (log2)
system.mem_ctrls3.writePktSize::4                   0                       # Write request sizes (log2)
system.mem_ctrls3.writePktSize::5                   0                       # Write request sizes (log2)
system.mem_ctrls3.writePktSize::6               60617                       # Write request sizes (log2)
system.mem_ctrls3.rdQLenPdf::0                  74978                       # What read queue length does an incoming req see
system.mem_ctrls3.rdQLenPdf::1                    934                       # What read queue length does an incoming req see
system.mem_ctrls3.rdQLenPdf::2                     68                       # What read queue length does an incoming req see
system.mem_ctrls3.rdQLenPdf::3                     10                       # What read queue length does an incoming req see
system.mem_ctrls3.rdQLenPdf::4                      2                       # What read queue length does an incoming req see
system.mem_ctrls3.rdQLenPdf::5                      1                       # What read queue length does an incoming req see
system.mem_ctrls3.rdQLenPdf::6                      0                       # What read queue length does an incoming req see
system.mem_ctrls3.rdQLenPdf::7                      0                       # What read queue length does an incoming req see
system.mem_ctrls3.rdQLenPdf::8                      0                       # What read queue length does an incoming req see
system.mem_ctrls3.rdQLenPdf::9                      0                       # What read queue length does an incoming req see
system.mem_ctrls3.rdQLenPdf::10                     0                       # What read queue length does an incoming req see
system.mem_ctrls3.rdQLenPdf::11                     0                       # What read queue length does an incoming req see
system.mem_ctrls3.rdQLenPdf::12                     0                       # What read queue length does an incoming req see
system.mem_ctrls3.rdQLenPdf::13                     0                       # What read queue length does an incoming req see
system.mem_ctrls3.rdQLenPdf::14                     0                       # What read queue length does an incoming req see
system.mem_ctrls3.rdQLenPdf::15                     0                       # What read queue length does an incoming req see
system.mem_ctrls3.rdQLenPdf::16                     0                       # What read queue length does an incoming req see
system.mem_ctrls3.rdQLenPdf::17                     0                       # What read queue length does an incoming req see
system.mem_ctrls3.rdQLenPdf::18                     0                       # What read queue length does an incoming req see
system.mem_ctrls3.rdQLenPdf::19                     0                       # What read queue length does an incoming req see
system.mem_ctrls3.rdQLenPdf::20                     0                       # What read queue length does an incoming req see
system.mem_ctrls3.rdQLenPdf::21                     0                       # What read queue length does an incoming req see
system.mem_ctrls3.rdQLenPdf::22                     0                       # What read queue length does an incoming req see
system.mem_ctrls3.rdQLenPdf::23                     0                       # What read queue length does an incoming req see
system.mem_ctrls3.rdQLenPdf::24                     0                       # What read queue length does an incoming req see
system.mem_ctrls3.rdQLenPdf::25                     0                       # What read queue length does an incoming req see
system.mem_ctrls3.rdQLenPdf::26                     0                       # What read queue length does an incoming req see
[...]
system.ruby.L2Cache_Controller.I_I.Ack_all::total        12708                      
system.ruby.L2Cache_Controller.S_I.Ack   |           0      0.00%      0.00% |           0      0.00%      0.00% |           1      3.33%      3.33% |           1      3.33%      6.67% |           0      0.00%      6.67% |           0      0.00%      6.67% |           2      6.67%     13.33% |           3     10.00%     23.33% |           1      3.33%     26.67% |           2      6.67%     33.33% |           4     13.33%     46.67% |           1      3.33%     50.00% |           2      6.67%     56.67% |           2      6.67%     63.33% |           2      6.67%     70.00% |           2      6.67%     76.67% |           2      6.67%     83.33% |           1      3.33%     86.67% |           1      3.33%     90.00% |           1      3.33%     93.33% |           1      3.33%     96.67% |           0      0.00%     96.67% |           0      0.00%     96.67% |           0      0.00%     96.67% |           0      0.00%     96.67% |           0      0.00%     96.67% |           0      0.00%     96.67% |           0      0.00%     96.67% |           0      0.00%     96.67% |           1      3.33%    100.00% |           0      0.00%    100.00% |           0      0.00%    100.00%
system.ruby.L2Cache_Controller.S_I.Ack::total           30                      
system.ruby.L2Cache_Controller.S_I.Ack_all |           1      2.33%      2.33% |           2      4.65%      6.98% |           3      6.98%     13.95% |           1      2.33%     16.28% |           0      0.00%     16.28% |           3      6.98%     23.26% |           3      6.98%     30.23% |           3      6.98%     37.21% |           1      2.33%     39.53% |           3      6.98%     46.51% |           4      9.30%     55.81% |           1      2.33%     58.14% |           2      4.65%     62.79% |           2      4.65%     67.44% |           3      6.98%     74.42% |           2      4.65%     79.07% |           2      4.65%     83.72% |           1      2.33%     86.05% |           1      2.33%     88.37% |           1      2.33%     90.70% |           1      2.33%     93.02% |           1      2.33%     95.35% |           0      0.00%     95.35% |           0      0.00%     95.35% |           0      0.00%     95.35% |           0      0.00%     95.35% |           0      0.00%     95.35% |           0      0.00%     95.35% |           1      2.33%     97.67% |           1      2.33%    100.00% |           0      0.00%    100.00% |           0      0.00%    100.00%
system.ruby.L2Cache_Controller.S_I.Ack_all::total           43                      
system.ruby.L2Cache_Controller.ISS.Mem_Data |        5292      4.14%      4.14% |        4027      3.15%      7.28% |        4082      3.19%     10.47% |        3980      3.11%     13.58% |        3984      3.11%     16.70% |        3972      3.10%     19.80% |        3977      3.11%     22.91% |        3972      3.10%     26.01% |        3976      3.11%     29.12% |        4008      3.13%     32.25% |        4027      3.15%     35.40% |        3932      3.07%     38.47% |        3950      3.09%     41.56% |        3963      3.10%     44.65% |        3967      3.10%     47.75% |        3926      3.07%     50.82% |        3959      3.09%     53.92% |        3943      3.08%     57.00% |        3946      3.08%     60.08% |        3952      3.09%     63.17% |        3948      3.09%     66.26% |        3971      3.10%     69.36% |        3970      3.10%     72.46% |        3905      3.05%     75.51% |        3929      3.07%     78.58% |        3951      3.09%     81.67% |        3918      3.06%     84.73% |        3894      3.04%     87.78% |        3922      3.06%     90.84% |        3891      3.04%     93.88% |        3886      3.04%     96.92% |        3944      3.08%    100.00%
system.ruby.L2Cache_Controller.ISS.Mem_Data::total       127964                      
system.ruby.L2Cache_Controller.IS.Mem_Data |         415      3.24%      3.24% |         378      2.96%      6.20% |         382      2.99%      9.19% |         374      2.92%     12.11% |         386      3.02%     15.13% |         390      3.05%     18.18% |         387      3.03%     21.20% |         392      3.06%     24.27% |         398      3.11%     27.38% |         413      3.23%     30.61% |         413      3.23%     33.84% |         402      3.14%     36.98% |         428      3.35%     40.33% |         431      3.37%     43.69% |         426      3.33%     47.03% |         420      3.28%     50.31% |         424      3.31%     53.62% |         406      3.17%     56.80% |         397      3.10%     59.90% |         373      2.92%     62.82% |         365      2.85%     65.67% |         399      3.12%     68.79% |         386      3.02%     71.81% |         387      3.03%     74.83% |         411      3.21%     78.05% |         420      3.28%     81.33% |         427      3.34%     84.67% |         397      3.10%     87.77% |         399      3.12%     90.89% |         389      3.04%     93.93% |         399      3.12%     97.05% |         377      2.95%    100.00%
system.ruby.L2Cache_Controller.IS.Mem_Data::total        12791                      
system.ruby.L2Cache_Controller.IM.Mem_Data |        5277      3.18%      3.18% |        5174      3.12%      6.31% |        5175      3.12%      9.43% |        5178      3.12%     12.55% |        5164      3.12%     15.67% |        5170      3.12%     18.79% |        5158      3.11%     21.90% |        5155      3.11%     25.01% |        5177      3.12%     28.13% |        5182      3.13%     31.26% |        5168      3.12%     34.38% |        5194      3.13%     37.51% |        5187      3.13%     40.64% |        5186      3.13%     43.77% |        5176      3.12%     46.89% |        5164      3.12%     50.01% |        5178      3.12%     53.13% |        5182      3.13%     56.26% |        5182      3.13%     59.39% |        5182      3.13%     62.51% |        5182      3.13%     65.64% |        5198      3.14%     68.78% |        5171      3.12%     71.90% |        5167      3.12%     75.01% |        5175      3.12%     78.14% |        5181      3.13%     81.26% |        5186      3.13%     84.39% |        5177      3.12%     87.52% |        5172      3.12%     90.64% |        5174      3.12%     93.76% |        5187      3.13%     96.89% |        5159      3.11%    100.00%
system.ruby.L2Cache_Controller.IM.Mem_Data::total       165738                      
system.ruby.L2Cache_Controller.SS_MB.Exclusive_Unblock |           2      4.44%      4.44% |           3      6.67%     11.11% |           4      8.89%     20.00% |           3      6.67%     26.67% |           0      0.00%     26.67% |           2      4.44%     31.11% |           0      0.00%     31.11% |           0      0.00%     31.11% |           0      0.00%     31.11% |           2      4.44%     35.56% |           0      0.00%     35.56% |           0      0.00%     35.56% |           3      6.67%     42.22% |           0      0.00%     42.22% |           3      6.67%     48.89% |           0      0.00%     48.89% |           1      2.22%     51.11% |           1      2.22%     53.33% |          11     24.44%     77.78% |           3      6.67%     84.44% |           1      2.22%     86.67% |           0      0.00%     86.67% |           0      0.00%     86.67% |           0      0.00%     86.67% |           1      2.22%     88.89% |           0      0.00%     88.89% |           1      2.22%     91.11% |           0      0.00%     91.11% |           3      6.67%     97.78% |           1      2.22%    100.00% |           0      0.00%    100.00% |           0      0.00%    100.00%
system.ruby.L2Cache_Controller.SS_MB.Exclusive_Unblock::total           45                      
system.ruby.L2Cache_Controller.MT_MB.Exclusive_Unblock |       45937      7.99%      7.99% |       17993      3.13%     11.12% |       16681      2.90%     14.03% |       17654      3.07%     17.10% |       16872      2.94%     20.04% |       16510      2.87%     22.91% |       16179      2.82%     25.72% |       16158      2.81%     28.54% |       16382      2.85%     31.39% |       16942      2.95%     34.33% |       18618      3.24%     37.57% |       18936      3.30%     40.87% |       17040      2.97%     43.84% |       16689      2.90%     46.74% |       15854      2.76%     49.50% |       16243      2.83%     52.32% |       17185      2.99%     55.32% |       16686      2.90%     58.22% |       17008      2.96%     61.18% |       17038      2.96%     64.14% |       16690      2.90%     67.05% |       19133      3.33%     70.38% |       16592      2.89%     73.26% |       16272      2.83%     76.10% |       16734      2.91%     79.01% |       17118      2.98%     81.99% |       16665      2.90%     84.89% |       16623      2.89%     87.78% |       16514      2.87%     90.65% |       16311      2.84%     93.49% |       17437      3.03%     96.53% |       19964      3.47%    100.00%
system.ruby.L2Cache_Controller.MT_MB.Exclusive_Unblock::total       574658                      
system.ruby.L2Cache_Controller.MT_IIB.WB_Data |           0      0.00%      0.00% |           0      0.00%      0.00% |           1      3.57%      3.57% |           1      3.57%      7.14% |           0      0.00%      7.14% |           0      0.00%      7.14% |           2      7.14%     14.29% |           3     10.71%     25.00% |           1      3.57%     28.57% |           2      7.14%     35.71% |           4     14.29%     50.00% |           1      3.57%     53.57% |           2      7.14%     60.71% |           2      7.14%     67.86% |           2      7.14%     75.00% |           2      7.14%     82.14% |           2      7.14%     89.29% |           1      3.57%     92.86% |           0      0.00%     92.86% |           0      0.00%     92.86% |           1      3.57%     96.43% |           0      0.00%     96.43% |           0      0.00%     96.43% |           0      0.00%     96.43% |           0      0.00%     96.43% |           0      0.00%     96.43% |           0      0.00%     96.43% |           0      0.00%     96.43% |           0      0.00%     96.43% |           1      3.57%    100.00% |           0      0.00%    100.00% |           0      0.00%    100.00%
system.ruby.L2Cache_Controller.MT_IIB.WB_Data::total           28                      
system.ruby.L2Cache_Controller.MT_IIB.Unblock |           0      0.00%      0.00% |           0      0.00%      0.00% |           0      0.00%      0.00% |           0      0.00%      0.00% |           0      0.00%      0.00% |           0      0.00%      0.00% |           0      0.00%      0.00% |           0      0.00%      0.00% |           0      0.00%      0.00% |           0      0.00%      0.00% |           0      0.00%      0.00% |           0      0.00%      0.00% |           0      0.00%      0.00% |           0      0.00%      0.00% |           0      0.00%      0.00% |           0      0.00%      0.00% |           0      0.00%      0.00% |           0      0.00%      0.00% |           1     50.00%     50.00% |           1     50.00%    100.00% |           0      0.00%    100.00% |           0      0.00%    100.00% |           0      0.00%    100.00% |           0      0.00%    100.00% |           0      0.00%    100.00% |           0      0.00%    100.00% |           0      0.00%    100.00% |           0      0.00%    100.00% |           0      0.00%    100.00% |           0      0.00%    100.00% |           0      0.00%    100.00% |           0      0.00%    100.00%
system.ruby.L2Cache_Controller.MT_IIB.Unblock::total            2                      
system.ruby.L2Cache_Controller.MT_IB.WB_Data |           0      0.00%      0.00% |           0      0.00%      0.00% |           0      0.00%      0.00% |           0      0.00%      0.00% |           0      0.00%      0.00% |           0      0.00%      0.00% |           0      0.00%      0.00% |           0      0.00%      0.00% |           0      0.00%      0.00% |           0      0.00%      0.00% |           0      0.00%      0.00% |           0      0.00%      0.00% |           0      0.00%      0.00% |           0      0.00%      0.00% |           0      0.00%      0.00% |           0      0.00%      0.00% |           0      0.00%      0.00% |           0      0.00%      0.00% |           1     50.00%     50.00% |           1     50.00%    100.00% |           0      0.00%    100.00% |           0      0.00%    100.00% |           0      0.00%    100.00% |           0      0.00%    100.00% |           0      0.00%    100.00% |           0      0.00%    100.00% |           0      0.00%    100.00% |           0      0.00%    100.00% |           0      0.00%    100.00% |           0      0.00%    100.00% |           0      0.00%    100.00% |           0      0.00%    100.00%
system.ruby.L2Cache_Controller.MT_IB.WB_Data::total            2                      
system.ruby.L2Cache_Controller.MT_SB.Unblock |           0      0.00%      0.00% |           0      0.00%      0.00% |           1      3.57%      3.57% |           1      3.57%      7.14% |           0      0.00%      7.14% |           0      0.00%      7.14% |           2      7.14%     14.29% |           3     10.71%     25.00% |           1      3.57%     28.57% |           2      7.14%     35.71% |           4     14.29%     50.00% |           1      3.57%     53.57% |           2      7.14%     60.71% |           2      7.14%     67.86% |           2      7.14%     75.00% |           2      7.14%     82.14% |           2      7.14%     89.29% |           1      3.57%     92.86% |           0      0.00%     92.86% |           0      0.00%     92.86% |           1      3.57%     96.43% |           0      0.00%     96.43% |           0      0.00%     96.43% |           0      0.00%     96.43% |           0      0.00%     96.43% |           0      0.00%     96.43% |           0      0.00%     96.43% |           0      0.00%     96.43% |           0      0.00%     96.43% |           1      3.57%    100.00% |           0      0.00%    100.00% |           0      0.00%    100.00%
system.ruby.L2Cache_Controller.MT_SB.Unblock::total           28                      
system.ruby.SimicsNetworkPortInterface_Controller.MessageSend |      276610     18.16%     18.16% |      761517     50.00%     68.16% |      484907     31.84%    100.00% |           0      0.00%    100.00% |           0      0.00%    100.00% |           0      0.00%    100.00% |           0      0.00%    100.00% |           0      0.00%    100.00% |           0      0.00%    100.00% |           0      0.00%    100.00% |           0      0.00%    100.00% |           0      0.00%    100.00% |           0      0.00%    100.00% |           0      0.00%    100.00% |           0      0.00%    100.00% |           0      0.00%    100.00% |           0      0.00%    100.00% |           0      0.00%    100.00% |           0      0.00%    100.00% |           0      0.00%    100.00% |           0      0.00%    100.00% |           0      0.00%    100.00% |           0      0.00%    100.00% |           0      0.00%    100.00% |           0      0.00%    100.00% |           0      0.00%    100.00% |           0      0.00%    100.00% |           0      0.00%    100.00% |           0      0.00%    100.00% |           0      0.00%    100.00% |           0      0.00%    100.00% |           0      0.00%    100.00%
system.ruby.SimicsNetworkPortInterface_Controller.MessageSend::total      1523034                      
system.ruby.SimicsNetworkPortInterface_Controller.MessageRecv |      276610     18.16%     18.16% |      761517     50.00%     68.16% |      484907     31.84%    100.00% |           0      0.00%    100.00% |           0      0.00%    100.00% |           0      0.00%    100.00% |           0      0.00%    100.00% |           0      0.00%    100.00% |           0      0.00%    100.00% |           0      0.00%    100.00% |           0      0.00%    100.00% |           0      0.00%    100.00% |           0      0.00%    100.00% |           0      0.00%    100.00% |           0      0.00%    100.00% |           0      0.00%    100.00% |           0      0.00%    100.00% |           0      0.00%    100.00% |           0      0.00%    100.00% |           0      0.00%    100.00% |           0      0.00%    100.00% |           0      0.00%    100.00% |           0      0.00%    100.00% |           0      0.00%    100.00% |           0      0.00%    100.00% |           0      0.00%    100.00% |           0      0.00%    100.00% |           0      0.00%    100.00% |           0      0.00%    100.00% |           0      0.00%    100.00% |           0      0.00%    100.00% |           0      0.00%    100.00%
system.ruby.SimicsNetworkPortInterface_Controller.MessageRecv::total      1523034                      
system.ruby.SimicsNetworkPortInterface_Controller.A.MessageSend |      276610     18.16%     18.16% |      761517     50.00%     68.16% |      484907     31.84%    100.00% |           0      0.00%    100.00% |           0      0.00%    100.00% |           0      0.00%    100.00% |           0      0.00%    100.00% |           0      0.00%    100.00% |           0      0.00%    100.00% |           0      0.00%    100.00% |           0      0.00%    100.00% |           0      0.00%    100.00% |           0      0.00%    100.00% |           0      0.00%    100.00% |           0      0.00%    100.00% |           0      0.00%    100.00% |           0      0.00%    100.00% |           0      0.00%    100.00% |           0      0.00%    100.00% |           0      0.00%    100.00% |           0      0.00%    100.00% |           0      0.00%    100.00% |           0      0.00%    100.00% |           0      0.00%    100.00% |           0      0.00%    100.00% |           0      0.00%    100.00% |           0      0.00%    100.00% |           0      0.00%    100.00% |           0      0.00%    100.00% |           0      0.00%    100.00% |           0      0.00%    100.00% |           0      0.00%    100.00%
system.ruby.SimicsNetworkPortInterface_Controller.A.MessageSend::total      1523034                      
system.ruby.SimicsNetworkPortInterface_Controller.A.MessageRecv |      276610     18.16%     18.16% |      761517     50.00%     68.16% |      484907     31.84%    100.00% |           0      0.00%    100.00% |           0      0.00%    100.00% |           0      0.00%    100.00% |           0      0.00%    100.00% |           0      0.00%    100.00% |           0      0.00%    100.00% |           0      0.00%    100.00% |           0      0.00%    100.00% |           0      0.00%    100.00% |           0      0.00%    100.00% |           0      0.00%    100.00% |           0      0.00%    100.00% |           0      0.00%    100.00% |           0      0.00%    100.00% |           0      0.00%    100.00% |           0      0.00%    100.00% |           0      0.00%    100.00% |           0      0.00%    100.00% |           0      0.00%    100.00% |           0      0.00%    100.00% |           0      0.00%    100.00% |           0      0.00%    100.00% |           0      0.00%    100.00% |           0      0.00%    100.00% |           0      0.00%    100.00% |           0      0.00%    100.00% |           0      0.00%    100.00% |           0      0.00%    100.00% |           0      0.00%    100.00%
system.ruby.SimicsNetworkPortInterface_Controller.A.MessageRecv::total      1523034                      
system.switch_cpus.kern.inst.arm                    0                       # number of arm instructions executed
system.switch_cpus.kern.inst.quiesce                0                       # number of quiesce instructions executed

---------- End Simulation Statistics   ----------
