
---------- Begin Simulation Statistics ----------
sim_seconds                                  0.096979                       # Number of seconds simulated
sim_ticks                                 96979464000                       # Number of ticks simulated
final_tick                               5273147542500                       # Number of ticks from beginning of simulation (restored from checkpoints and never reset)
sim_freq                                 1000000000000                       # Frequency of simulated ticks
host_inst_rate                                  31449                       # Simulator instruction rate (inst/s)
host_op_rate                                    54860                       # Simulator op (including micro ops) rate (op/s)
host_tick_rate                               65045081                       # Simulator tick rate (ticks/s)
host_mem_usage                                7860696                       # Number of bytes of host memory used
host_seconds                                  1490.96                       # Real time elapsed on the host
sim_insts                                    46888553                       # Number of instructions simulated
sim_ops                                      81794659                       # Number of ops (including micro ops) simulated
system.voltage_domain.voltage                       1                       # Voltage in Volts
system.clk_domain.clock                           500                       # Clock period in ticks
system.mem_ctrls0.bytes_read::ruby.dir_cntrl0     21136064                       # Number of bytes read from this memory
system.mem_ctrls0.bytes_read::total          21136064                       # Number of bytes read from this memory
system.mem_ctrls0.bytes_written::ruby.dir_cntrl0     11913856                       # Number of bytes written to this memory
system.mem_ctrls0.bytes_written::total       11913856                       # Number of bytes written to this memory
system.mem_ctrls0.num_reads::ruby.dir_cntrl0       330251                       # Number of read requests responded to by this memory
system.mem_ctrls0.num_reads::total             330251                       # Number of read requests responded to by this memory
system.mem_ctrls0.num_writes::ruby.dir_cntrl0       186154                       # Number of write requests responded to by this memory
system.mem_ctrls0.num_writes::total            186154                       # Number of write requests responded to by this memory
system.mem_ctrls0.bw_read::ruby.dir_cntrl0    217943708                       # Total read bandwidth from this memory (bytes/s)
system.mem_ctrls0.bw_read::total            217943708                       # Total read bandwidth from this memory (bytes/s)
system.mem_ctrls0.bw_write::ruby.dir_cntrl0    122849266                       # Write bandwidth from this memory (bytes/s)
system.mem_ctrls0.bw_write::total           122849266                       # Write bandwidth from this memory (bytes/s)
system.mem_ctrls0.bw_total::ruby.dir_cntrl0    340792974                       # Total bandwidth to/from this memory (bytes/s)
system.mem_ctrls0.bw_total::total           340792974                       # Total bandwidth to/from this memory (bytes/s)
system.mem_ctrls0.readReqs                     330251                       # Number of read requests accepted
system.mem_ctrls0.writeReqs                    186154                       # Number of write requests accepted
system.mem_ctrls0.readBursts                   330251                       # Number of DRAM read bursts, including those serviced by the write queue
system.mem_ctrls0.writeBursts                  186154                       # Number of DRAM write bursts, including those merged in the write queue
system.mem_ctrls0.bytesReadDRAM              21133824                       # Total number of bytes read from DRAM
system.mem_ctrls0.bytesReadWrQ                   2240                       # Total number of bytes read from write queue
system.mem_ctrls0.bytesWritten               11913792                       # Total number of bytes written to DRAM
system.mem_ctrls0.bytesReadSys               21136064                       # Total read bytes from the system interface side
system.mem_ctrls0.bytesWrittenSys            11913856                       # Total written bytes from the system interface side
system.mem_ctrls0.servicedByWrQ                    35                       # Number of DRAM read bursts serviced by the write queue
system.mem_ctrls0.mergedWrBursts                    0                       # Number of DRAM write bursts merged with an existing one
system.mem_ctrls0.neitherReadNorWriteReqs            0                       # Number of requests that are neither read nor write
system.mem_ctrls0.perBankRdBursts::0            20349                       # Per bank write bursts
system.mem_ctrls0.perBankRdBursts::1            21047                       # Per bank write bursts
system.mem_ctrls0.perBankRdBursts::2            20520                       # Per bank write bursts
system.mem_ctrls0.perBankRdBursts::3            20868                       # Per bank write bursts
system.mem_ctrls0.perBankRdBursts::4            20546                       # Per bank write bursts
system.mem_ctrls0.perBankRdBursts::5            21045                       # Per bank write bursts
system.mem_ctrls0.perBankRdBursts::6            20631                       # Per bank write bursts
system.mem_ctrls0.perBankRdBursts::7            20742                       # Per bank write bursts
system.mem_ctrls0.perBankRdBursts::8            20704                       # Per bank write bursts
system.mem_ctrls0.perBankRdBursts::9            20902                       # Per bank write bursts
system.mem_ctrls0.perBankRdBursts::10           20610                       # Per bank write bursts
system.mem_ctrls0.perBankRdBursts::11           20954                       # Per bank write bursts
system.mem_ctrls0.perBankRdBursts::12           20275                       # Per bank write bursts
system.mem_ctrls0.perBankRdBursts::13           20148                       # Per bank write bursts
system.mem_ctrls0.perBankRdBursts::14           20456                       # Per bank write bursts
system.mem_ctrls0.perBankRdBursts::15           20419                       # Per bank write bursts
system.mem_ctrls0.perBankWrBursts::0            11504                       # Per bank write bursts
system.mem_ctrls0.perBankWrBursts::1            11668                       # Per bank write bursts
system.mem_ctrls0.perBankWrBursts::2            11673                       # Per bank write bursts
system.mem_ctrls0.perBankWrBursts::3            11654                       # Per bank write bursts
system.mem_ctrls0.perBankWrBursts::4            11615                       # Per bank write bursts
system.mem_ctrls0.perBankWrBursts::5            11916                       # Per bank write bursts
system.mem_ctrls0.perBankWrBursts::6            11560                       # Per bank write bursts
system.mem_ctrls0.perBankWrBursts::7            11687                       # Per bank write bursts
system.mem_ctrls0.perBankWrBursts::8            11898                       # Per bank write bursts
system.mem_ctrls0.perBankWrBursts::9            11727                       # Per bank write bursts
system.mem_ctrls0.perBankWrBursts::10           11525                       # Per bank write bursts
system.mem_ctrls0.perBankWrBursts::11           11707                       # Per bank write bursts
system.mem_ctrls0.perBankWrBursts::12           11354                       # Per bank write bursts
system.mem_ctrls0.perBankWrBursts::13           11320                       # Per bank write bursts
system.mem_ctrls0.perBankWrBursts::14           11755                       # Per bank write bursts
system.mem_ctrls0.perBankWrBursts::15           11590                       # Per bank write bursts
system.mem_ctrls0.numRdRetry                     1535                       # Number of times read queue was full causing retry
system.mem_ctrls0.numWrRetry                     2093                       # Number of times write queue was full causing retry
system.mem_ctrls0.totGap                  96978901000                       # Total gap between requests
system.mem_ctrls0.readPktSize::0                    0                       # Read request sizes (log2)
system.mem_ctrls0.readPktSize::1                    0                       # Read request sizes (log2)
system.mem_ctrls0.readPktSize::2                    0                       # Read request sizes (log2)
system.mem_ctrls0.readPktSize::3                    0                       # Read request sizes (log2)
system.mem_ctrls0.readPktSize::4                    0                       # Read request sizes (log2)
system.mem_ctrls0.readPktSize::5                    0                       # Read request sizes (log2)
system.mem_ctrls0.readPktSize::6               330251                       # Read request sizes (log2)
system.mem_ctrls0.writePktSize::0                   0                       # Write request sizes (log2)
system.mem_ctrls0.writePktSize::1                   0                       # Write request sizes (log2)
system.mem_ctrls0.writePktSize::2                   0                       # Write request sizes (log2)
system.mem_ctrls0.writePktSize::3                   0                       # Write request sizes (log2)
system.mem_ctrls0.writePktSize::4                   0                       # Write request sizes (log2)
system.mem_ctrls0.writePktSize::5                   0                       # Write request sizes (log2)
system.mem_ctrls0.writePktSize::6              186154                       # Write request sizes (log2)
system.mem_ctrls0.rdQLenPdf::0                 167711                       # What read queue length does an incoming req see
system.mem_ctrls0.rdQLenPdf::1                  44710                       # What read queue length does an incoming req see
system.mem_ctrls0.rdQLenPdf::2                  31920                       # What read queue length does an incoming req see
system.mem_ctrls0.rdQLenPdf::3                  21488                       # What read queue length does an incoming req see
system.mem_ctrls0.rdQLenPdf::4                  14688                       # What read queue length does an incoming req see
system.mem_ctrls0.rdQLenPdf::5                  10711                       # What read queue length does an incoming req see
system.mem_ctrls0.rdQLenPdf::6                   7762                       # What read queue length does an incoming req see
system.mem_ctrls0.rdQLenPdf::7                   5809                       # What read queue length does an incoming req see
system.mem_ctrls0.rdQLenPdf::8                   4312                       # What read queue length does an incoming req see
system.mem_ctrls0.rdQLenPdf::9                   3434                       # What read queue length does an incoming req see
system.mem_ctrls0.rdQLenPdf::10                  2748                       # What read queue length does an incoming req see
system.mem_ctrls0.rdQLenPdf::11                  2153                       # What read queue length does an incoming req see
system.mem_ctrls0.rdQLenPdf::12                  1742                       # What read queue length does an incoming req see
system.mem_ctrls0.rdQLenPdf::13                  1442                       # What read queue length does an incoming req see
system.mem_ctrls0.rdQLenPdf::14                  1188                       # What read queue length does an incoming req see
system.mem_ctrls0.rdQLenPdf::15                   968                       # What read queue length does an incoming req see
system.mem_ctrls0.rdQLenPdf::16                   856                       # What read queue length does an incoming req see
system.mem_ctrls0.rdQLenPdf::17                   678                       # What read queue length does an incoming req see
system.mem_ctrls0.rdQLenPdf::18                   584                       # What read queue length does an incoming req see
system.mem_ctrls0.rdQLenPdf::19                   519                       # What read queue length does an incoming req see
system.mem_ctrls0.rdQLenPdf::20                   438                       # What read queue length does an incoming req see
system.mem_ctrls0.rdQLenPdf::21                   369                       # What read queue length does an incoming req see
system.mem_ctrls0.rdQLenPdf::22                   337                       # What read queue length does an incoming req see
system.mem_ctrls0.rdQLenPdf::23                   279                       # What read queue length does an incoming req see
system.mem_ctrls0.rdQLenPdf::24                   279                       # What read queue length does an incoming req see
system.mem_ctrls0.rdQLenPdf::25                   263                       # What read queue length does an incoming req see
system.mem_ctrls0.rdQLenPdf::26                   233                       # What read queue length does an incoming req see
system.mem_ctrls0.rdQLenPdf::27                   238                       # What read queue length does an incoming req see
system.mem_ctrls0.rdQLenPdf::28                   205                       # What read queue length does an incoming req see
system.mem_ctrls0.rdQLenPdf::29                   199                       # What read queue length does an incoming req see
system.mem_ctrls0.rdQLenPdf::30                   178                       # What read queue length does an incoming req see
system.mem_ctrls0.rdQLenPdf::31                  1775                       # What read queue length does an incoming req see
system.mem_ctrls0.wrQLenPdf::0                  33508                       # What write queue length does an incoming req see
system.mem_ctrls0.wrQLenPdf::1                  35655                       # What write queue length does an incoming req see
system.mem_ctrls0.wrQLenPdf::2                  36229                       # What write queue length does an incoming req see
system.mem_ctrls0.wrQLenPdf::3                  36428                       # What write queue length does an incoming req see
system.mem_ctrls0.wrQLenPdf::4                  35965                       # What write queue length does an incoming req see
system.mem_ctrls0.wrQLenPdf::5                   2997                       # What write queue length does an incoming req see
system.mem_ctrls0.wrQLenPdf::6                   2025                       # What write queue length does an incoming req see
system.mem_ctrls0.wrQLenPdf::7                   3347                       # What write queue length does an incoming req see
system.mem_ctrls0.bytesPerActivate::samples       155015                       # Bytes accessed per row activation
system.mem_ctrls0.bytesPerActivate::mean   213.185253                       # Bytes accessed per row activation
system.mem_ctrls0.bytesPerActivate::gmean   160.383476                       # Bytes accessed per row activation
system.mem_ctrls0.bytesPerActivate::stdev   174.747640                       # Bytes accessed per row activation
system.mem_ctrls0.bytesPerActivate::0-127        48900     31.55%     31.55% # Bytes accessed per row activation
system.mem_ctrls0.bytesPerActivate::128-255        45689     29.47%     61.02% # Bytes accessed per row activation
system.mem_ctrls0.bytesPerActivate::256-383        43261     27.91%     88.93% # Bytes accessed per row activation
system.mem_ctrls0.bytesPerActivate::384-511         6968      4.50%     93.42% # Bytes accessed per row activation
system.mem_ctrls0.bytesPerActivate::512-639         4207      2.71%     96.14% # Bytes accessed per row activation
system.mem_ctrls0.bytesPerActivate::640-767         2136      1.38%     97.51% # Bytes accessed per row activation
system.mem_ctrls0.bytesPerActivate::768-895         1407      0.91%     98.42% # Bytes accessed per row activation
system.mem_ctrls0.bytesPerActivate::896-1023          890      0.57%     99.00% # Bytes accessed per row activation
system.mem_ctrls0.bytesPerActivate::1024-1151         1557      1.00%    100.00% # Bytes accessed per row activation
system.mem_ctrls0.bytesPerActivate::total       155015                       # Bytes accessed per row activation
system.mem_ctrls0.rdPerTurnAround::samples        33706                       # Reads before turning the bus around for writes
system.mem_ctrls0.rdPerTurnAround::mean      9.796861                       # Reads before turning the bus around for writes
system.mem_ctrls0.rdPerTurnAround::stdev    23.778696                       # Reads before turning the bus around for writes
system.mem_ctrls0.rdPerTurnAround::0-127        33699     99.98%     99.98% # Reads before turning the bus around for writes
system.mem_ctrls0.rdPerTurnAround::128-255            6      0.02%    100.00% # Reads before turning the bus around for writes
system.mem_ctrls0.rdPerTurnAround::3968-4095            1      0.00%    100.00% # Reads before turning the bus around for writes
system.mem_ctrls0.rdPerTurnAround::total        33706                       # Reads before turning the bus around for writes
system.mem_ctrls0.wrPerTurnAround::samples        33706                       # Writes before turning the bus around for reads
system.mem_ctrls0.wrPerTurnAround::mean      5.522845                       # Writes before turning the bus around for reads
system.mem_ctrls0.wrPerTurnAround::gmean     5.390745                       # Writes before turning the bus around for reads
system.mem_ctrls0.wrPerTurnAround::stdev     1.553085                       # Writes before turning the bus around for reads
system.mem_ctrls0.wrPerTurnAround::4-7          31483     93.40%     93.40% # Writes before turning the bus around for reads
system.mem_ctrls0.wrPerTurnAround::8-11          1604      4.76%     98.16% # Writes before turning the bus around for reads
system.mem_ctrls0.wrPerTurnAround::12-15          367      1.09%     99.25% # Writes before turning the bus around for reads
system.mem_ctrls0.wrPerTurnAround::16-19          252      0.75%    100.00% # Writes before turning the bus around for reads
system.mem_ctrls0.wrPerTurnAround::total        33706                       # Writes before turning the bus around for reads
system.mem_ctrls0.totQLat                 11468329105                       # Total ticks spent queuing
system.mem_ctrls0.totMemAccLat            17659879105                       # Total ticks spent from burst creation until serviced by the DRAM
system.mem_ctrls0.totBusLat                1651080000                       # Total ticks spent in databus transfers
system.mem_ctrls0.avgQLat                    34729.78                       # Average queueing delay per DRAM burst
system.mem_ctrls0.avgBusLat                   5000.00                       # Average bus latency per DRAM burst
system.mem_ctrls0.avgMemAccLat               53479.78                       # Average memory access latency per DRAM burst
system.mem_ctrls0.avgRdBW                      217.92                       # Average DRAM read bandwidth in MiByte/s
system.mem_ctrls0.avgWrBW                      122.85                       # Average achieved write bandwidth in MiByte/s
system.mem_ctrls0.avgRdBWSys                   217.94                       # Average system read bandwidth in MiByte/s
system.mem_ctrls0.avgWrBWSys                   122.85                       # Average system write bandwidth in MiByte/s
system.mem_ctrls0.peakBW                     12800.00                       # Theoretical peak bandwidth in MiByte/s
system.mem_ctrls0.busUtil                        2.66                       # Data bus utilization in percentage
system.mem_ctrls0.busUtilRead                    1.70                       # Data bus utilization in percentage for reads
system.mem_ctrls0.busUtilWrite                   0.96                       # Data bus utilization in percentage for writes
system.mem_ctrls0.avgRdQLen                      1.25                       # Average read queue length when enqueuing
system.mem_ctrls0.avgWrQLen                      2.96                       # Average write queue length when enqueuing
system.mem_ctrls0.readRowHits                  248267                       # Number of row buffer hits during reads
system.mem_ctrls0.writeRowHits                 113078                       # Number of row buffer hits during writes
system.mem_ctrls0.readRowHitRate                75.18                       # Row buffer hit rate for reads
system.mem_ctrls0.writeRowHitRate               60.74                       # Row buffer hit rate for writes
system.mem_ctrls0.avgGap                    187796.21                       # Average gap between requests
system.mem_ctrls0.pageHitRate                   69.98                       # Row buffer hit rate, read and write combined
system.mem_ctrls0.memoryStateTime::IDLE   15265557500                       # Time in different power states
system.mem_ctrls0.memoryStateTime::REF     3238300000                       # Time in different power states
system.mem_ctrls0.memoryStateTime::PRE_PDN            0                       # Time in different power states
system.mem_ctrls0.memoryStateTime::ACT    78474185250                       # Time in different power states
system.mem_ctrls0.memoryStateTime::ACT_PDN            0                       # Time in different power states
system.mem_ctrls0.actEnergy::0              590315040                       # Energy for activate commands per rank (pJ)
system.mem_ctrls0.actEnergy::1              581583240                       # Energy for activate commands per rank (pJ)
system.mem_ctrls0.preEnergy::0              322096500                       # Energy for precharge commands per rank (pJ)
system.mem_ctrls0.preEnergy::1              317332125                       # Energy for precharge commands per rank (pJ)
system.mem_ctrls0.readEnergy::0            1292811000                       # Energy for read commands per rank (pJ)
system.mem_ctrls0.readEnergy::1            1282811400                       # Energy for read commands per rank (pJ)
system.mem_ctrls0.writeEnergy::0            604422000                       # Energy for write commands per rank (pJ)
system.mem_ctrls0.writeEnergy::1            601817040                       # Energy for write commands per rank (pJ)
system.mem_ctrls0.refreshEnergy::0         6334114800                       # Energy for refresh commands per rank (pJ)
system.mem_ctrls0.refreshEnergy::1         6334114800                       # Energy for refresh commands per rank (pJ)
system.mem_ctrls0.actBackEnergy::0        41287926060                       # Energy for active background per rank (pJ)
system.mem_ctrls0.actBackEnergy::1        40565935845                       # Energy for active background per rank (pJ)
system.mem_ctrls0.preBackEnergy::0        21969338250                       # Energy for precharge background per rank (pJ)
system.mem_ctrls0.preBackEnergy::1        22602663000                       # Energy for precharge background per rank (pJ)
system.mem_ctrls0.totalEnergy::0          72401023650                       # Total energy per rank (pJ)
system.mem_ctrls0.totalEnergy::1          72286257450                       # Total energy per rank (pJ)
system.mem_ctrls0.averagePower::0          746.571410                       # Core power per rank (mW)
system.mem_ctrls0.averagePower::1          745.387985                       # Core power per rank (mW)
system.mem_ctrls1.bytes_read::ruby.dir_cntrl1     20716864                       # Number of bytes read from this memory
system.mem_ctrls1.bytes_read::total          20716864                       # Number of bytes read from this memory
system.mem_ctrls1.bytes_written::ruby.dir_cntrl1     11494272                       # Number of bytes written to this memory
system.mem_ctrls1.bytes_written::total       11494272                       # Number of bytes written to this memory
system.mem_ctrls1.num_reads::ruby.dir_cntrl1       323701                       # Number of read requests responded to by this memory
system.mem_ctrls1.num_reads::total             323701                       # Number of read requests responded to by this memory
system.mem_ctrls1.num_writes::ruby.dir_cntrl1       179598                       # Number of write requests responded to by this memory
system.mem_ctrls1.num_writes::total            179598                       # Number of write requests responded to by this memory
system.mem_ctrls1.bw_read::ruby.dir_cntrl1    213621144                       # Total read bandwidth from this memory (bytes/s)
system.mem_ctrls1.bw_read::total            213621144                       # Total read bandwidth from this memory (bytes/s)
system.mem_ctrls1.bw_write::ruby.dir_cntrl1    118522742                       # Write bandwidth from this memory (bytes/s)
system.mem_ctrls1.bw_write::total           118522742                       # Write bandwidth from this memory (bytes/s)
system.mem_ctrls1.bw_total::ruby.dir_cntrl1    332143886                       # Total bandwidth to/from this memory (bytes/s)
system.mem_ctrls1.bw_total::total           332143886                       # Total bandwidth to/from this memory (bytes/s)
system.mem_ctrls1.readReqs                     323701                       # Number of read requests accepted
system.mem_ctrls1.writeReqs                    179598                       # Number of write requests accepted
system.mem_ctrls1.readBursts                   323701                       # Number of DRAM read bursts, including those serviced by the write queue
system.mem_ctrls1.writeBursts                  179598                       # Number of DRAM write bursts, including those merged in the write queue
system.mem_ctrls1.bytesReadDRAM              20714880                       # Total number of bytes read from DRAM
system.mem_ctrls1.bytesReadWrQ                   1984                       # Total number of bytes read from write queue
system.mem_ctrls1.bytesWritten               11494144                       # Total number of bytes written to DRAM
system.mem_ctrls1.bytesReadSys               20716864                       # Total read bytes from the system interface side
system.mem_ctrls1.bytesWrittenSys            11494272                       # Total written bytes from the system interface side
system.mem_ctrls1.servicedByWrQ                    31                       # Number of DRAM read bursts serviced by the write queue
system.mem_ctrls1.mergedWrBursts                    0                       # Number of DRAM write bursts merged with an existing one
system.mem_ctrls1.neitherReadNorWriteReqs            0                       # Number of requests that are neither read nor write
system.mem_ctrls1.perBankRdBursts::0            19953                       # Per bank write bursts
system.mem_ctrls1.perBankRdBursts::1            20598                       # Per bank write bursts
system.mem_ctrls1.perBankRdBursts::2            20105                       # Per bank write bursts
system.mem_ctrls1.perBankRdBursts::3            20430                       # Per bank write bursts
system.mem_ctrls1.perBankRdBursts::4            20196                       # Per bank write bursts
system.mem_ctrls1.perBankRdBursts::5            20644                       # Per bank write bursts
system.mem_ctrls1.perBankRdBursts::6            20232                       # Per bank write bursts
system.mem_ctrls1.perBankRdBursts::7            20413                       # Per bank write bursts
system.mem_ctrls1.perBankRdBursts::8            20269                       # Per bank write bursts
system.mem_ctrls1.perBankRdBursts::9            20472                       # Per bank write bursts
system.mem_ctrls1.perBankRdBursts::10           20239                       # Per bank write bursts
system.mem_ctrls1.perBankRdBursts::11           20536                       # Per bank write bursts
system.mem_ctrls1.perBankRdBursts::12           19859                       # Per bank write bursts
system.mem_ctrls1.perBankRdBursts::13           19757                       # Per bank write bursts
system.mem_ctrls1.perBankRdBursts::14           19928                       # Per bank write bursts
system.mem_ctrls1.perBankRdBursts::15           20039                       # Per bank write bursts
system.mem_ctrls1.perBankWrBursts::0            11105                       # Per bank write bursts
system.mem_ctrls1.perBankWrBursts::1            11261                       # Per bank write bursts
system.mem_ctrls1.perBankWrBursts::2            11271                       # Per bank write bursts
system.mem_ctrls1.perBankWrBursts::3            11245                       # Per bank write bursts
system.mem_ctrls1.perBankWrBursts::4            11217                       # Per bank write bursts
system.mem_ctrls1.perBankWrBursts::5            11522                       # Per bank write bursts
system.mem_ctrls1.perBankWrBursts::6            11144                       # Per bank write bursts
system.mem_ctrls1.perBankWrBursts::7            11270                       # Per bank write bursts
system.mem_ctrls1.perBankWrBursts::8            11491                       # Per bank write bursts
system.mem_ctrls1.perBankWrBursts::9            11300                       # Per bank write bursts
system.mem_ctrls1.perBankWrBursts::10           11133                       # Per bank write bursts
system.mem_ctrls1.perBankWrBursts::11           11288                       # Per bank write bursts
system.mem_ctrls1.perBankWrBursts::12           10943                       # Per bank write bursts
system.mem_ctrls1.perBankWrBursts::13           10909                       # Per bank write bursts
system.mem_ctrls1.perBankWrBursts::14           11297                       # Per bank write bursts
system.mem_ctrls1.perBankWrBursts::15           11200                       # Per bank write bursts
system.mem_ctrls1.numRdRetry                     1215                       # Number of times read queue was full causing retry
system.mem_ctrls1.numWrRetry                     1799                       # Number of times write queue was full causing retry
system.mem_ctrls1.totGap                  96978634000                       # Total gap between requests
system.mem_ctrls1.readPktSize::0                    0                       # Read request sizes (log2)
system.mem_ctrls1.readPktSize::1                    0                       # Read request sizes (log2)
system.mem_ctrls1.readPktSize::2                    0                       # Read request sizes (log2)
system.mem_ctrls1.readPktSize::3                    0                       # Read request sizes (log2)
system.mem_ctrls1.readPktSize::4                    0                       # Read request sizes (log2)
system.mem_ctrls1.readPktSize::5                    0                       # Read request sizes (log2)
system.mem_ctrls1.readPktSize::6               323701                       # Read request sizes (log2)
system.mem_ctrls1.writePktSize::0                   0                       # Write request sizes (log2)
system.mem_ctrls1.writePktSize::1                   0                       # Write request sizes (log2)
system.mem_ctrls1.writePktSize::2                   0                       # Write request sizes (log2)
system.mem_ctrls1.writePktSize::3                   0                       # Write request sizes (log2)
system.mem_ctrls1.writePktSize::4                   0                       # Write request sizes (log2)
system.mem_ctrls1.writePktSize::5                   0                       # Write request sizes (log2)
system.mem_ctrls1.writePktSize::6              179598                       # Write request sizes (log2)
system.mem_ctrls1.rdQLenPdf::0                 164692                       # What read queue length does an incoming req see
system.mem_ctrls1.rdQLenPdf::1                  42503                       # What read queue length does an incoming req see
system.mem_ctrls1.rdQLenPdf::2                  31116                       # What read queue length does an incoming req see
system.mem_ctrls1.rdQLenPdf::3                  21741                       # What read queue length does an incoming req see
system.mem_ctrls1.rdQLenPdf::4                  15069                       # What read queue length does an incoming req see
system.mem_ctrls1.rdQLenPdf::5                  11027                       # What read queue length does an incoming req see
system.mem_ctrls1.rdQLenPdf::6                   7928                       # What read queue length does an incoming req see
system.mem_ctrls1.rdQLenPdf::7                   5834                       # What read queue length does an incoming req see
system.mem_ctrls1.rdQLenPdf::8                   4440                       # What read queue length does an incoming req see
system.mem_ctrls1.rdQLenPdf::9                   3382                       # What read queue length does an incoming req see
system.mem_ctrls1.rdQLenPdf::10                  2630                       # What read queue length does an incoming req see
system.mem_ctrls1.rdQLenPdf::11                  2127                       # What read queue length does an incoming req see
system.mem_ctrls1.rdQLenPdf::12                  1684                       # What read queue length does an incoming req see
system.mem_ctrls1.rdQLenPdf::13                  1361                       # What read queue length does an incoming req see
system.mem_ctrls1.rdQLenPdf::14                  1075                       # What read queue length does an incoming req see
system.mem_ctrls1.rdQLenPdf::15                   937                       # What read queue length does an incoming req see
system.mem_ctrls1.rdQLenPdf::16                   758                       # What read queue length does an incoming req see
system.mem_ctrls1.rdQLenPdf::17                   637                       # What read queue length does an incoming req see
system.mem_ctrls1.rdQLenPdf::18                   489                       # What read queue length does an incoming req see
system.mem_ctrls1.rdQLenPdf::19                   397                       # What read queue length does an incoming req see
system.mem_ctrls1.rdQLenPdf::20                   361                       # What read queue length does an incoming req see
system.mem_ctrls1.rdQLenPdf::21                   316                       # What read queue length does an incoming req see
system.mem_ctrls1.rdQLenPdf::22                   283                       # What read queue length does an incoming req see
system.mem_ctrls1.rdQLenPdf::23                   252                       # What read queue length does an incoming req see
system.mem_ctrls1.rdQLenPdf::24                   219                       # What read queue length does an incoming req see
system.mem_ctrls1.rdQLenPdf::25                   219                       # What read queue length does an incoming req see
system.mem_ctrls1.rdQLenPdf::26                   179                       # What read queue length does an incoming req see
system.mem_ctrls1.rdQLenPdf::27                   168                       # What read queue length does an incoming req see
system.mem_ctrls1.rdQLenPdf::28                   150                       # What read queue length does an incoming req see
system.mem_ctrls1.rdQLenPdf::29                   167                       # What read queue length does an incoming req see
system.mem_ctrls1.rdQLenPdf::30                   152                       # What read queue length does an incoming req see
system.mem_ctrls1.rdQLenPdf::31                  1377                       # What read queue length does an incoming req see
system.mem_ctrls1.wrQLenPdf::0                  32395                       # What write queue length does an incoming req see
system.mem_ctrls1.wrQLenPdf::1                  34255                       # What write queue length does an incoming req see
system.mem_ctrls1.wrQLenPdf::2                  34980                       # What write queue length does an incoming req see
system.mem_ctrls1.wrQLenPdf::3                  35164                       # What write queue length does an incoming req see
system.mem_ctrls1.wrQLenPdf::4                  34906                       # What write queue length does an incoming req see
system.mem_ctrls1.wrQLenPdf::5                   2980                       # What write queue length does an incoming req see
system.mem_ctrls1.wrQLenPdf::6                   1871                       # What write queue length does an incoming req see
system.mem_ctrls1.wrQLenPdf::7                   3047                       # What write queue length does an incoming req see
system.mem_ctrls1.bytesPerActivate::samples       146746                       # Bytes accessed per row activation
system.mem_ctrls1.bytesPerActivate::mean   219.482153                       # Bytes accessed per row activation
system.mem_ctrls1.bytesPerActivate::gmean   164.820658                       # Bytes accessed per row activation
system.mem_ctrls1.bytesPerActivate::stdev   178.214160                       # Bytes accessed per row activation
system.mem_ctrls1.bytesPerActivate::0-127        44972     30.65%     30.65% # Bytes accessed per row activation
system.mem_ctrls1.bytesPerActivate::128-255        41189     28.07%     58.71% # Bytes accessed per row activation
system.mem_ctrls1.bytesPerActivate::256-383        43174     29.42%     88.14% # Bytes accessed per row activation
system.mem_ctrls1.bytesPerActivate::384-511         7115      4.85%     92.98% # Bytes accessed per row activation
system.mem_ctrls1.bytesPerActivate::512-639         4233      2.88%     95.87% # Bytes accessed per row activation
system.mem_ctrls1.bytesPerActivate::640-767         2179      1.48%     97.35% # Bytes accessed per row activation
system.mem_ctrls1.bytesPerActivate::768-895         1381      0.94%     98.29% # Bytes accessed per row activation
system.mem_ctrls1.bytesPerActivate::896-1023          964      0.66%     98.95% # Bytes accessed per row activation
system.mem_ctrls1.bytesPerActivate::1024-1151         1539      1.05%    100.00% # Bytes accessed per row activation
system.mem_ctrls1.bytesPerActivate::total       146746                       # Bytes accessed per row activation
system.mem_ctrls1.rdPerTurnAround::samples        32577                       # Reads before turning the bus around for writes
system.mem_ctrls1.rdPerTurnAround::mean      9.935261                       # Reads before turning the bus around for writes
system.mem_ctrls1.rdPerTurnAround::stdev    19.796229                       # Reads before turning the bus around for writes
system.mem_ctrls1.rdPerTurnAround::0-127        32571     99.98%     99.98% # Reads before turning the bus around for writes
system.mem_ctrls1.rdPerTurnAround::128-255            4      0.01%     99.99% # Reads before turning the bus around for writes
system.mem_ctrls1.rdPerTurnAround::1152-1279            1      0.00%    100.00% # Reads before turning the bus around for writes
system.mem_ctrls1.rdPerTurnAround::2816-2943            1      0.00%    100.00% # Reads before turning the bus around for writes
system.mem_ctrls1.rdPerTurnAround::total        32577                       # Reads before turning the bus around for writes
system.mem_ctrls1.wrPerTurnAround::samples        32577                       # Writes before turning the bus around for reads
system.mem_ctrls1.wrPerTurnAround::mean      5.512969                       # Writes before turning the bus around for reads
system.mem_ctrls1.wrPerTurnAround::gmean     5.383455                       # Writes before turning the bus around for reads
system.mem_ctrls1.wrPerTurnAround::stdev     1.531761                       # Writes before turning the bus around for reads
system.mem_ctrls1.wrPerTurnAround::4-7          30397     93.31%     93.31% # Writes before turning the bus around for reads
system.mem_ctrls1.wrPerTurnAround::8-11          1612      4.95%     98.26% # Writes before turning the bus around for reads
system.mem_ctrls1.wrPerTurnAround::12-15          345      1.06%     99.32% # Writes before turning the bus around for reads
system.mem_ctrls1.wrPerTurnAround::16-19          223      0.68%    100.00% # Writes before turning the bus around for reads
system.mem_ctrls1.wrPerTurnAround::total        32577                       # Writes before turning the bus around for reads
system.mem_ctrls1.totQLat                 10722064381                       # Total ticks spent queuing
system.mem_ctrls1.totMemAccLat            16790876881                       # Total ticks spent from burst creation until serviced by the DRAM
system.mem_ctrls1.totBusLat                1618350000                       # Total ticks spent in databus transfers
system.mem_ctrls1.avgQLat                    33126.53                       # Average queueing delay per DRAM burst
system.mem_ctrls1.avgBusLat                   5000.00                       # Average bus latency per DRAM burst
system.mem_ctrls1.avgMemAccLat               51876.53                       # Average memory access latency per DRAM burst
system.mem_ctrls1.avgRdBW                      213.60                       # Average DRAM read bandwidth in MiByte/s
system.mem_ctrls1.avgWrBW                      118.52                       # Average achieved write bandwidth in MiByte/s
system.mem_ctrls1.avgRdBWSys                   213.62                       # Average system read bandwidth in MiByte/s
system.mem_ctrls1.avgWrBWSys                   118.52                       # Average system write bandwidth in MiByte/s
system.mem_ctrls1.peakBW                     12800.00                       # Theoretical peak bandwidth in MiByte/s
system.mem_ctrls1.busUtil                        2.59                       # Data bus utilization in percentage
system.mem_ctrls1.busUtilRead                    1.67                       # Data bus utilization in percentage for reads
system.mem_ctrls1.busUtilWrite                   0.93                       # Data bus utilization in percentage for writes
system.mem_ctrls1.avgRdQLen                      1.24                       # Average read queue length when enqueuing
system.mem_ctrls1.avgWrQLen                      2.98                       # Average write queue length when enqueuing
system.mem_ctrls1.readRowHits                  245173                       # Number of row buffer hits during reads
system.mem_ctrls1.writeRowHits                 111339                       # Number of row buffer hits during writes
system.mem_ctrls1.readRowHitRate                75.75                       # Row buffer hit rate for reads
system.mem_ctrls1.writeRowHitRate               61.99                       # Row buffer hit rate for writes
system.mem_ctrls1.avgGap                    192685.93                       # Average gap between requests
system.mem_ctrls1.pageHitRate                   70.84                       # Row buffer hit rate, read and write combined
system.mem_ctrls1.memoryStateTime::IDLE   15466776250                       # Time in different power states
system.mem_ctrls1.memoryStateTime::REF     3238300000                       # Time in different power states
system.mem_ctrls1.memoryStateTime::PRE_PDN            0                       # Time in different power states
system.mem_ctrls1.memoryStateTime::ACT    78272945500                       # Time in different power states
system.mem_ctrls1.memoryStateTime::ACT_PDN            0                       # Time in different power states
system.mem_ctrls1.actEnergy::0              559780200                       # Energy for activate commands per rank (pJ)
system.mem_ctrls1.actEnergy::1              549612000                       # Energy for activate commands per rank (pJ)
system.mem_ctrls1.preEnergy::0              305435625                       # Energy for precharge commands per rank (pJ)
system.mem_ctrls1.preEnergy::1              299887500                       # Energy for precharge commands per rank (pJ)
system.mem_ctrls1.readEnergy::0            1268014800                       # Energy for read commands per rank (pJ)
system.mem_ctrls1.readEnergy::1            1256533200                       # Energy for read commands per rank (pJ)
system.mem_ctrls1.writeEnergy::0            583420320                       # Energy for write commands per rank (pJ)
system.mem_ctrls1.writeEnergy::1            580329360                       # Energy for write commands per rank (pJ)
system.mem_ctrls1.refreshEnergy::0         6334114800                       # Energy for refresh commands per rank (pJ)
system.mem_ctrls1.refreshEnergy::1         6334114800                       # Energy for refresh commands per rank (pJ)
system.mem_ctrls1.actBackEnergy::0        40779254925                       # Energy for active background per rank (pJ)
system.mem_ctrls1.actBackEnergy::1        39809724255                       # Energy for active background per rank (pJ)
system.mem_ctrls1.preBackEnergy::0        22415529000                       # Energy for precharge background per rank (pJ)
system.mem_ctrls1.preBackEnergy::1        23265994500                       # Energy for precharge background per rank (pJ)
system.mem_ctrls1.totalEnergy::0          72245549670                       # Total energy per rank (pJ)
system.mem_ctrls1.totalEnergy::1          72096195615                       # Total energy per rank (pJ)
system.mem_ctrls1.averagePower::0          744.968376                       # Core power per rank (mW)
system.mem_ctrls1.averagePower::1          743.428294                       # Core power per rank (mW)
system.mem_ctrls2.bytes_read::ruby.dir_cntrl2     20711040                       # Number of bytes read from this memory
system.mem_ctrls2.bytes_read::total          20711040                       # Number of bytes read from this memory
system.mem_ctrls2.bytes_written::ruby.dir_cntrl2     11495104                       # Number of bytes written to this memory
system.mem_ctrls2.bytes_written::total       11495104                       # Number of bytes written to this memory
system.mem_ctrls2.num_reads::ruby.dir_cntrl2       323610                       # Number of read requests responded to by this memory
system.mem_ctrls2.num_reads::total             323610                       # Number of read requests responded to by this memory
system.mem_ctrls2.num_writes::ruby.dir_cntrl2       179611                       # Number of write requests responded to by this memory
system.mem_ctrls2.num_writes::total            179611                       # Number of write requests responded to by this memory
system.mem_ctrls2.bw_read::ruby.dir_cntrl2    213561090                       # Total read bandwidth from this memory (bytes/s)
system.mem_ctrls2.bw_read::total            213561090                       # Total read bandwidth from this memory (bytes/s)
system.mem_ctrls2.bw_write::ruby.dir_cntrl2    118531321                       # Write bandwidth from this memory (bytes/s)
system.mem_ctrls2.bw_write::total           118531321                       # Write bandwidth from this memory (bytes/s)
system.mem_ctrls2.bw_total::ruby.dir_cntrl2    332092411                       # Total bandwidth to/from this memory (bytes/s)
system.mem_ctrls2.bw_total::total           332092411                       # Total bandwidth to/from this memory (bytes/s)
system.mem_ctrls2.readReqs                     323610                       # Number of read requests accepted
system.mem_ctrls2.writeReqs                    179611                       # Number of write requests accepted
system.mem_ctrls2.readBursts                   323610                       # Number of DRAM read bursts, including those serviced by the write queue
system.mem_ctrls2.writeBursts                  179611                       # Number of DRAM write bursts, including those merged in the write queue
system.mem_ctrls2.bytesReadDRAM              20710080                       # Total number of bytes read from DRAM
system.mem_ctrls2.bytesReadWrQ                    960                       # Total number of bytes read from write queue
system.mem_ctrls2.bytesWritten               11494912                       # Total number of bytes written to DRAM
system.mem_ctrls2.bytesReadSys               20711040                       # Total read bytes from the system interface side
system.mem_ctrls2.bytesWrittenSys            11495104                       # Total written bytes from the system interface side
system.mem_ctrls2.servicedByWrQ                    15                       # Number of DRAM read bursts serviced by the write queue
system.mem_ctrls2.mergedWrBursts                    0                       # Number of DRAM write bursts merged with an existing one
system.mem_ctrls2.neitherReadNorWriteReqs            0                       # Number of requests that are neither read nor write
system.mem_ctrls2.perBankRdBursts::0            19958                       # Per bank write bursts
system.mem_ctrls2.perBankRdBursts::1            20583                       # Per bank write bursts
system.mem_ctrls2.perBankRdBursts::2            20150                       # Per bank write bursts
system.mem_ctrls2.perBankRdBursts::3            20510                       # Per bank write bursts
system.mem_ctrls2.perBankRdBursts::4            20182                       # Per bank write bursts
system.mem_ctrls2.perBankRdBursts::5            20590                       # Per bank write bursts
system.mem_ctrls2.perBankRdBursts::6            20216                       # Per bank write bursts
system.mem_ctrls2.perBankRdBursts::7            20367                       # Per bank write bursts
system.mem_ctrls2.perBankRdBursts::8            20258                       # Per bank write bursts
system.mem_ctrls2.perBankRdBursts::9            20478                       # Per bank write bursts
system.mem_ctrls2.perBankRdBursts::10           20203                       # Per bank write bursts
system.mem_ctrls2.perBankRdBursts::11           20573                       # Per bank write bursts
system.mem_ctrls2.perBankRdBursts::12           19854                       # Per bank write bursts
system.mem_ctrls2.perBankRdBursts::13           19678                       # Per bank write bursts
system.mem_ctrls2.perBankRdBursts::14           19937                       # Per bank write bursts
system.mem_ctrls2.perBankRdBursts::15           20058                       # Per bank write bursts
system.mem_ctrls2.perBankWrBursts::0            11104                       # Per bank write bursts
system.mem_ctrls2.perBankWrBursts::1            11267                       # Per bank write bursts
system.mem_ctrls2.perBankWrBursts::2            11264                       # Per bank write bursts
system.mem_ctrls2.perBankWrBursts::3            11267                       # Per bank write bursts
system.mem_ctrls2.perBankWrBursts::4            11211                       # Per bank write bursts
system.mem_ctrls2.perBankWrBursts::5            11503                       # Per bank write bursts
system.mem_ctrls2.perBankWrBursts::6            11149                       # Per bank write bursts
system.mem_ctrls2.perBankWrBursts::7            11267                       # Per bank write bursts
system.mem_ctrls2.perBankWrBursts::8            11461                       # Per bank write bursts
system.mem_ctrls2.perBankWrBursts::9            11315                       # Per bank write bursts
system.mem_ctrls2.perBankWrBursts::10           11122                       # Per bank write bursts
system.mem_ctrls2.perBankWrBursts::11           11320                       # Per bank write bursts
system.mem_ctrls2.perBankWrBursts::12           10959                       # Per bank write bursts
system.mem_ctrls2.perBankWrBursts::13           10899                       # Per bank write bursts
system.mem_ctrls2.perBankWrBursts::14           11295                       # Per bank write bursts
system.mem_ctrls2.perBankWrBursts::15           11205                       # Per bank write bursts
system.mem_ctrls2.numRdRetry                     1211                       # Number of times read queue was full causing retry
system.mem_ctrls2.numWrRetry                     1846                       # Number of times write queue was full causing retry
system.mem_ctrls2.totGap                  96979322500                       # Total gap between requests
system.mem_ctrls2.readPktSize::0                    0                       # Read request sizes (log2)
system.mem_ctrls2.readPktSize::1                    0                       # Read request sizes (log2)
system.mem_ctrls2.readPktSize::2                    0                       # Read request sizes (log2)
system.mem_ctrls2.readPktSize::3                    0                       # Read request sizes (log2)
system.mem_ctrls2.readPktSize::4                    0                       # Read request sizes (log2)
system.mem_ctrls2.readPktSize::5                    0                       # Read request sizes (log2)
system.mem_ctrls2.readPktSize::6               323610                       # Read request sizes (log2)
system.mem_ctrls2.writePktSize::0                   0                       # Write request sizes (log2)
system.mem_ctrls2.writePktSize::1                   0                       # Write request sizes (log2)
system.mem_ctrls2.writePktSize::2                   0                       # Write request sizes (log2)
system.mem_ctrls2.writePktSize::3                   0                       # Write request sizes (log2)
system.mem_ctrls2.writePktSize::4                   0                       # Write request sizes (log2)
system.mem_ctrls2.writePktSize::5                   0                       # Write request sizes (log2)
system.mem_ctrls2.writePktSize::6              179611                       # Write request sizes (log2)
system.mem_ctrls2.rdQLenPdf::0                 165336                       # What read queue length does an incoming req see
system.mem_ctrls2.rdQLenPdf::1                  42341                       # What read queue length does an incoming req see
system.mem_ctrls2.rdQLenPdf::2                  31082                       # What read queue length does an incoming req see
system.mem_ctrls2.rdQLenPdf::3                  21741                       # What read queue length does an incoming req see
system.mem_ctrls2.rdQLenPdf::4                  14786                       # What read queue length does an incoming req see
system.mem_ctrls2.rdQLenPdf::5                  10701                       # What read queue length does an incoming req see
system.mem_ctrls2.rdQLenPdf::6                   7629                       # What read queue length does an incoming req see
system.mem_ctrls2.rdQLenPdf::7                   5762                       # What read queue length does an incoming req see
system.mem_ctrls2.rdQLenPdf::8                   4385                       # What read queue length does an incoming req see
system.mem_ctrls2.rdQLenPdf::9                   3359                       # What read queue length does an incoming req see
system.mem_ctrls2.rdQLenPdf::10                  2675                       # What read queue length does an incoming req see
system.mem_ctrls2.rdQLenPdf::11                  2191                       # What read queue length does an incoming req see
system.mem_ctrls2.rdQLenPdf::12                  1729                       # What read queue length does an incoming req see
system.mem_ctrls2.rdQLenPdf::13                  1445                       # What read queue length does an incoming req see
system.mem_ctrls2.rdQLenPdf::14                  1179                       # What read queue length does an incoming req see
system.mem_ctrls2.rdQLenPdf::15                   977                       # What read queue length does an incoming req see
system.mem_ctrls2.rdQLenPdf::16                   798                       # What read queue length does an incoming req see
system.mem_ctrls2.rdQLenPdf::17                   630                       # What read queue length does an incoming req see
system.mem_ctrls2.rdQLenPdf::18                   522                       # What read queue length does an incoming req see
system.mem_ctrls2.rdQLenPdf::19                   420                       # What read queue length does an incoming req see
system.mem_ctrls2.rdQLenPdf::20                   349                       # What read queue length does an incoming req see
system.mem_ctrls2.rdQLenPdf::21                   320                       # What read queue length does an incoming req see
system.mem_ctrls2.rdQLenPdf::22                   274                       # What read queue length does an incoming req see
system.mem_ctrls2.rdQLenPdf::23                   234                       # What read queue length does an incoming req see
system.mem_ctrls2.rdQLenPdf::24                   218                       # What read queue length does an incoming req see
system.mem_ctrls2.rdQLenPdf::25                   203                       # What read queue length does an incoming req see
system.mem_ctrls2.rdQLenPdf::26                   196                       # What read queue length does an incoming req see
system.mem_ctrls2.rdQLenPdf::27                   183                       # What read queue length does an incoming req see
system.mem_ctrls2.rdQLenPdf::28                   187                       # What read queue length does an incoming req see
system.mem_ctrls2.rdQLenPdf::29                   158                       # What read queue length does an incoming req see
system.mem_ctrls2.rdQLenPdf::30                   184                       # What read queue length does an incoming req see
system.mem_ctrls2.rdQLenPdf::31                  1401                       # What read queue length does an incoming req see
system.mem_ctrls2.wrQLenPdf::0                  32410                       # What write queue length does an incoming req see
system.mem_ctrls2.wrQLenPdf::1                  34190                       # What write queue length does an incoming req see
system.mem_ctrls2.wrQLenPdf::2                  34834                       # What write queue length does an incoming req see
system.mem_ctrls2.wrQLenPdf::3                  35026                       # What write queue length does an incoming req see
system.mem_ctrls2.wrQLenPdf::4                  34805                       # What write queue length does an incoming req see
system.mem_ctrls2.wrQLenPdf::5                   3124                       # What write queue length does an incoming req see
system.mem_ctrls2.wrQLenPdf::6                   2058                       # What write queue length does an incoming req see
system.mem_ctrls2.wrQLenPdf::7                   3164                       # What write queue length does an incoming req see
system.mem_ctrls2.bytesPerActivate::samples       145618                       # Bytes accessed per row activation
system.mem_ctrls2.bytesPerActivate::mean   221.158593                       # Bytes accessed per row activation
system.mem_ctrls2.bytesPerActivate::gmean   165.666169                       # Bytes accessed per row activation
system.mem_ctrls2.bytesPerActivate::stdev   180.386373                       # Bytes accessed per row activation
system.mem_ctrls2.bytesPerActivate::0-127        44673     30.68%     30.68% # Bytes accessed per row activation
system.mem_ctrls2.bytesPerActivate::128-255        40247     27.64%     58.32% # Bytes accessed per row activation
system.mem_ctrls2.bytesPerActivate::256-383        43182     29.65%     87.97% # Bytes accessed per row activation
system.mem_ctrls2.bytesPerActivate::384-511         7012      4.82%     92.79% # Bytes accessed per row activation
system.mem_ctrls2.bytesPerActivate::512-639         4257      2.92%     95.71% # Bytes accessed per row activation
system.mem_ctrls2.bytesPerActivate::640-767         2211      1.52%     97.23% # Bytes accessed per row activation
system.mem_ctrls2.bytesPerActivate::768-895         1422      0.98%     98.20% # Bytes accessed per row activation
system.mem_ctrls2.bytesPerActivate::896-1023          941      0.65%     98.85% # Bytes accessed per row activation
system.mem_ctrls2.bytesPerActivate::1024-1151         1673      1.15%    100.00% # Bytes accessed per row activation
system.mem_ctrls2.bytesPerActivate::total       145618                       # Bytes accessed per row activation
system.mem_ctrls2.rdPerTurnAround::samples        32577                       # Reads before turning the bus around for writes
system.mem_ctrls2.rdPerTurnAround::mean      9.932805                       # Reads before turning the bus around for writes
system.mem_ctrls2.rdPerTurnAround::stdev    19.887804                       # Reads before turning the bus around for writes
system.mem_ctrls2.rdPerTurnAround::0-127        32572     99.98%     99.98% # Reads before turning the bus around for writes
system.mem_ctrls2.rdPerTurnAround::128-255            3      0.01%     99.99% # Reads before turning the bus around for writes
system.mem_ctrls2.rdPerTurnAround::1152-1279            1      0.00%    100.00% # Reads before turning the bus around for writes
system.mem_ctrls2.rdPerTurnAround::2816-2943            1      0.00%    100.00% # Reads before turning the bus around for writes
system.mem_ctrls2.rdPerTurnAround::total        32577                       # Reads before turning the bus around for writes
system.mem_ctrls2.wrPerTurnAround::samples        32577                       # Writes before turning the bus around for reads
system.mem_ctrls2.wrPerTurnAround::mean      5.513338                       # Writes before turning the bus around for reads
system.mem_ctrls2.wrPerTurnAround::gmean     5.382890                       # Writes before turning the bus around for reads
system.mem_ctrls2.wrPerTurnAround::stdev     1.539175                       # Writes before turning the bus around for reads
system.mem_ctrls2.wrPerTurnAround::4-7          30368     93.22%     93.22% # Writes before turning the bus around for reads
system.mem_ctrls2.wrPerTurnAround::8-11          1626      4.99%     98.21% # Writes before turning the bus around for reads
system.mem_ctrls2.wrPerTurnAround::12-15          354      1.09%     99.30% # Writes before turning the bus around for reads
system.mem_ctrls2.wrPerTurnAround::16-19          229      0.70%    100.00% # Writes before turning the bus around for reads
system.mem_ctrls2.wrPerTurnAround::total        32577                       # Writes before turning the bus around for reads
system.mem_ctrls2.totQLat                 10769780546                       # Total ticks spent queuing
system.mem_ctrls2.totMemAccLat            16837186796                       # Total ticks spent from burst creation until serviced by the DRAM
system.mem_ctrls2.totBusLat                1617975000                       # Total ticks spent in databus transfers
system.mem_ctrls2.avgQLat                    33281.67                       # Average queueing delay per DRAM burst
system.mem_ctrls2.avgBusLat                   5000.00                       # Average bus latency per DRAM burst
system.mem_ctrls2.avgMemAccLat               52031.67                       # Average memory access latency per DRAM burst
system.mem_ctrls2.avgRdBW                      213.55                       # Average DRAM read bandwidth in MiByte/s
system.mem_ctrls2.avgWrBW                      118.53                       # Average achieved write bandwidth in MiByte/s
system.mem_ctrls2.avgRdBWSys                   213.56                       # Average system read bandwidth in MiByte/s
system.mem_ctrls2.avgWrBWSys                   118.53                       # Average system write bandwidth in MiByte/s
system.mem_ctrls2.peakBW                     12800.00                       # Theoretical peak bandwidth in MiByte/s
system.mem_ctrls2.busUtil                        2.59                       # Data bus utilization in percentage
system.mem_ctrls2.busUtilRead                    1.67                       # Data bus utilization in percentage for reads
system.mem_ctrls2.busUtilWrite                   0.93                       # Data bus utilization in percentage for writes
system.mem_ctrls2.avgRdQLen                      1.24                       # Average read queue length when enqueuing
system.mem_ctrls2.avgWrQLen                      2.99                       # Average write queue length when enqueuing
system.mem_ctrls2.readRowHits                  245572                       # Number of row buffer hits during reads
system.mem_ctrls2.writeRowHits                 112009                       # Number of row buffer hits during writes
system.mem_ctrls2.readRowHitRate                75.89                       # Row buffer hit rate for reads
system.mem_ctrls2.writeRowHitRate               62.36                       # Row buffer hit rate for writes
system.mem_ctrls2.avgGap                    192717.16                       # Average gap between requests
system.mem_ctrls2.pageHitRate                   71.06                       # Row buffer hit rate, read and write combined
system.mem_ctrls2.memoryStateTime::IDLE   15512003000                       # Time in different power states
system.mem_ctrls2.memoryStateTime::REF     3238300000                       # Time in different power states
system.mem_ctrls2.memoryStateTime::PRE_PDN            0                       # Time in different power states
system.mem_ctrls2.memoryStateTime::ACT    78227817500                       # Time in different power states
system.mem_ctrls2.memoryStateTime::ACT_PDN            0                       # Time in different power states
system.mem_ctrls2.actEnergy::0              556514280                       # Energy for activate commands per rank (pJ)
system.mem_ctrls2.actEnergy::1              544350240                       # Energy for activate commands per rank (pJ)
system.mem_ctrls2.preEnergy::0              303653625                       # Energy for precharge commands per rank (pJ)
system.mem_ctrls2.preEnergy::1              297016500                       # Energy for precharge commands per rank (pJ)
system.mem_ctrls2.readEnergy::0            1267905600                       # Energy for read commands per rank (pJ)
system.mem_ctrls2.readEnergy::1            1256088600                       # Energy for read commands per rank (pJ)
system.mem_ctrls2.writeEnergy::0            583407360                       # Energy for write commands per rank (pJ)
system.mem_ctrls2.writeEnergy::1            580452480                       # Energy for write commands per rank (pJ)
system.mem_ctrls2.refreshEnergy::0         6334114800                       # Energy for refresh commands per rank (pJ)
system.mem_ctrls2.refreshEnergy::1         6334114800                       # Energy for refresh commands per rank (pJ)
system.mem_ctrls2.actBackEnergy::0        40671189765                       # Energy for active background per rank (pJ)
system.mem_ctrls2.actBackEnergy::1        39743087265                       # Energy for active background per rank (pJ)
system.mem_ctrls2.preBackEnergy::0        22510320000                       # Energy for precharge background per rank (pJ)
system.mem_ctrls2.preBackEnergy::1        23324445000                       # Energy for precharge background per rank (pJ)
system.mem_ctrls2.totalEnergy::0          72227105430                       # Total energy per rank (pJ)
system.mem_ctrls2.totalEnergy::1          72079554885                       # Total energy per rank (pJ)
system.mem_ctrls2.averagePower::0          744.778224                       # Core power per rank (mW)
system.mem_ctrls2.averagePower::1          743.256740                       # Core power per rank (mW)
system.mem_ctrls3.bytes_read::ruby.dir_cntrl3     20699136                       # Number of bytes read from this memory
system.mem_ctrls3.bytes_read::total          20699136                       # Number of bytes read from this memory
system.mem_ctrls3.bytes_written::ruby.dir_cntrl3     11492096                       # Number of bytes written to this memory
system.mem_ctrls3.bytes_written::total       11492096                       # Number of bytes written to this memory
system.mem_ctrls3.num_reads::ruby.dir_cntrl3       323424                       # Number of read requests responded to by this memory
system.mem_ctrls3.num_reads::total             323424                       # Number of read requests responded to by this memory
system.mem_ctrls3.num_writes::ruby.dir_cntrl3       179564                       # Number of write requests responded to by this memory
system.mem_ctrls3.num_writes::total            179564                       # Number of write requests responded to by this memory
system.mem_ctrls3.bw_read::ruby.dir_cntrl3    213438342                       # Total read bandwidth from this memory (bytes/s)
system.mem_ctrls3.bw_read::total            213438342                       # Total read bandwidth from this memory (bytes/s)
system.mem_ctrls3.bw_write::ruby.dir_cntrl3    118500304                       # Write bandwidth from this memory (bytes/s)
system.mem_ctrls3.bw_write::total           118500304                       # Write bandwidth from this memory (bytes/s)
system.mem_ctrls3.bw_total::ruby.dir_cntrl3    331938646                       # Total bandwidth to/from this memory (bytes/s)
system.mem_ctrls3.bw_total::total           331938646                       # Total bandwidth to/from this memory (bytes/s)
system.mem_ctrls3.readReqs                     323425                       # Number of read requests accepted
system.mem_ctrls3.writeReqs                    179564                       # Number of write requests accepted
system.mem_ctrls3.readBursts                   323425                       # Number of DRAM read bursts, including those serviced by the write queue
system.mem_ctrls3.writeBursts                  179564                       # Number of DRAM write bursts, including those merged in the write queue
system.mem_ctrls3.bytesReadDRAM              20698496                       # Total number of bytes read from DRAM
system.mem_ctrls3.bytesReadWrQ                    704                       # Total number of bytes read from write queue
system.mem_ctrls3.bytesWritten               11492096                       # Total number of bytes written to DRAM
system.mem_ctrls3.bytesReadSys               20699200                       # Total read bytes from the system interface side
system.mem_ctrls3.bytesWrittenSys            11492096                       # Total written bytes from the system interface side
system.mem_ctrls3.servicedByWrQ                    11                       # Number of DRAM read bursts serviced by the write queue
system.mem_ctrls3.mergedWrBursts                    0                       # Number of DRAM write bursts merged with an existing one
system.mem_ctrls3.neitherReadNorWriteReqs            0                       # Number of requests that are neither read nor write
system.mem_ctrls3.perBankRdBursts::0            19955                       # Per bank write bursts
system.mem_ctrls3.perBankRdBursts::1            20602                       # Per bank write bursts
system.mem_ctrls3.perBankRdBursts::2            20049                       # Per bank write bursts
system.mem_ctrls3.perBankRdBursts::3            20488                       # Per bank write bursts
system.mem_ctrls3.perBankRdBursts::4            20101                       # Per bank write bursts
system.mem_ctrls3.perBankRdBursts::5            20533                       # Per bank write bursts
system.mem_ctrls3.perBankRdBursts::6            20244                       # Per bank write bursts
system.mem_ctrls3.perBankRdBursts::7            20364                       # Per bank write bursts
system.mem_ctrls3.perBankRdBursts::8            20266                       # Per bank write bursts
system.mem_ctrls3.perBankRdBursts::9            20472                       # Per bank write bursts
system.mem_ctrls3.perBankRdBursts::10           20265                       # Per bank write bursts
system.mem_ctrls3.perBankRdBursts::11           20530                       # Per bank write bursts
system.mem_ctrls3.perBankRdBursts::12           19819                       # Per bank write bursts
system.mem_ctrls3.perBankRdBursts::13           19692                       # Per bank write bursts
system.mem_ctrls3.perBankRdBursts::14           19960                       # Per bank write bursts
system.mem_ctrls3.perBankRdBursts::15           20074                       # Per bank write bursts
system.mem_ctrls3.perBankWrBursts::0            11107                       # Per bank write bursts
system.mem_ctrls3.perBankWrBursts::1            11262                       # Per bank write bursts
system.mem_ctrls3.perBankWrBursts::2            11267                       # Per bank write bursts
system.mem_ctrls3.perBankWrBursts::3            11248                       # Per bank write bursts
system.mem_ctrls3.perBankWrBursts::4            11210                       # Per bank write bursts
system.mem_ctrls3.perBankWrBursts::5            11513                       # Per bank write bursts
system.mem_ctrls3.perBankWrBursts::6            11146                       # Per bank write bursts
system.mem_ctrls3.perBankWrBursts::7            11262                       # Per bank write bursts
system.mem_ctrls3.perBankWrBursts::8            11460                       # Per bank write bursts
system.mem_ctrls3.perBankWrBursts::9            11314                       # Per bank write bursts
system.mem_ctrls3.perBankWrBursts::10           11113                       # Per bank write bursts
system.mem_ctrls3.perBankWrBursts::11           11314                       # Per bank write bursts
system.mem_ctrls3.perBankWrBursts::12           10959                       # Per bank write bursts
system.mem_ctrls3.perBankWrBursts::13           10906                       # Per bank write bursts
system.mem_ctrls3.perBankWrBursts::14           11293                       # Per bank write bursts
system.mem_ctrls3.perBankWrBursts::15           11190                       # Per bank write bursts
system.mem_ctrls3.numRdRetry                     1487                       # Number of times read queue was full causing retry
system.mem_ctrls3.numWrRetry                     2047                       # Number of times write queue was full causing retry
system.mem_ctrls3.totGap                  96978722500                       # Total gap between requests
system.mem_ctrls3.readPktSize::0                    0                       # Read request sizes (log2)
system.mem_ctrls3.readPktSize::1                    0                       # Read request sizes (log2)
system.mem_ctrls3.readPktSize::2                    0                       # Read request sizes (log2)
system.mem_ctrls3.readPktSize::3                    0                       # Read request sizes (log2)
system.mem_ctrls3.readPktSize::4                    0                       # Read request sizes (log2)
system.mem_ctrls3.readPktSize::5                    0                       # Read request sizes (log2)
system.mem_ctrls3.readPktSize::6               323425                       # Read request sizes (log2)
system.mem_ctrls3.writePktSize::0                   0                       # Write request sizes (log2)
system.mem_ctrls3.writePktSize::1                   0                       # Write request sizes (log2)
system.mem_ctrls3.writePktSize::2                   0                       # Write request sizes (log2)
system.mem_ctrls3.writePktSize::3                   0                       # Write request sizes (log2)
system.mem_ctrls3.writePktSize::4                   0                       # Write request sizes (log2)
system.mem_ctrls3.writePktSize::5                   0                       # Write request sizes (log2)
system.mem_ctrls3.writePktSize::6              179564                       # Write request sizes (log2)
system.mem_ctrls3.rdQLenPdf::0                 165249                       # What read queue length does an incoming req see
system.mem_ctrls3.rdQLenPdf::1                  41893                       # What read queue length does an incoming req see
system.mem_ctrls3.rdQLenPdf::2                  30620                       # What read queue length does an incoming req see
system.mem_ctrls3.rdQLenPdf::3                  21472                       # What read queue length does an incoming req see
system.mem_ctrls3.rdQLenPdf::4                  14860                       # What read queue length does an incoming req see
system.mem_ctrls3.rdQLenPdf::5                  10944                       # What read queue length does an incoming req see
system.mem_ctrls3.rdQLenPdf::6                   7903                       # What read queue length does an incoming req see
system.mem_ctrls3.rdQLenPdf::7                   5952                       # What read queue length does an incoming req see
system.mem_ctrls3.rdQLenPdf::8                   4285                       # What read queue length does an incoming req see
system.mem_ctrls3.rdQLenPdf::9                   3347                       # What read queue length does an incoming req see
system.mem_ctrls3.rdQLenPdf::10                  2646                       # What read queue length does an incoming req see
system.mem_ctrls3.rdQLenPdf::11                  2197                       # What read queue length does an incoming req see
system.mem_ctrls3.rdQLenPdf::12                  1675                       # What read queue length does an incoming req see
system.mem_ctrls3.rdQLenPdf::13                  1371                       # What read queue length does an incoming req see
system.mem_ctrls3.rdQLenPdf::14                  1102                       # What read queue length does an incoming req see
system.mem_ctrls3.rdQLenPdf::15                   936                       # What read queue length does an incoming req see
system.mem_ctrls3.rdQLenPdf::16                   773                       # What read queue length does an incoming req see
system.mem_ctrls3.rdQLenPdf::17                   655                       # What read queue length does an incoming req see
system.mem_ctrls3.rdQLenPdf::18                   522                       # What read queue length does an incoming req see
system.mem_ctrls3.rdQLenPdf::19                   471                       # What read queue length does an incoming req see
system.mem_ctrls3.rdQLenPdf::20                   409                       # What read queue length does an incoming req see
system.mem_ctrls3.rdQLenPdf::21                   379                       # What read queue length does an incoming req see
system.mem_ctrls3.rdQLenPdf::22                   310                       # What read queue length does an incoming req see
system.mem_ctrls3.rdQLenPdf::23                   255                       # What read queue length does an incoming req see
system.mem_ctrls3.rdQLenPdf::24                   248                       # What read queue length does an incoming req see
[...]
system.ruby.L2Cache_Controller.MT_MB.L1_GETX::total            9                      
system.ruby.L2Cache_Controller.MT_MB.L1_PUTX |           1      5.00%      5.00% |           0      0.00%      5.00% |           0      0.00%      5.00% |           0      0.00%      5.00% |           0      0.00%      5.00% |           2     10.00%     15.00% |           1      5.00%     20.00% |           0      0.00%     20.00% |           0      0.00%     20.00% |           1      5.00%     25.00% |           0      0.00%     25.00% |           1      5.00%     30.00% |           0      0.00%     30.00% |           2     10.00%     40.00% |           3     15.00%     55.00% |           0      0.00%     55.00% |           0      0.00%     55.00% |           1      5.00%     60.00% |           1      5.00%     65.00% |           0      0.00%     65.00% |           0      0.00%     65.00% |           1      5.00%     70.00% |           1      5.00%     75.00% |           1      5.00%     80.00% |           0      0.00%     80.00% |           0      0.00%     80.00% |           2     10.00%     90.00% |           0      0.00%     90.00% |           0      0.00%     90.00% |           2     10.00%    100.00% |           0      0.00%    100.00% |           0      0.00%    100.00%
system.ruby.L2Cache_Controller.MT_MB.L1_PUTX::total           20                      
system.ruby.L2Cache_Controller.MT_MB.Exclusive_Unblock |      154954      5.62%      5.62% |       84905      3.08%      8.70% |       83554      3.03%     11.73% |       84335      3.06%     14.79% |       83893      3.04%     17.83% |       83283      3.02%     20.86% |       83545      3.03%     23.89% |       82962      3.01%     26.90% |       82974      3.01%     29.91% |       84031      3.05%     32.95% |       85220      3.09%     36.04% |       84204      3.05%     39.10% |       84422      3.06%     42.16% |       83003      3.01%     45.17% |       82447      2.99%     48.16% |       82727      3.00%     51.16% |       83655      3.03%     54.20% |       83108      3.01%     57.21% |       83733      3.04%     60.25% |       83909      3.04%     63.29% |       84074      3.05%     66.34% |       86000      3.12%     69.46% |       83980      3.05%     72.51% |       83264      3.02%     75.53% |       83608      3.03%     78.56% |       83826      3.04%     81.60% |       83578      3.03%     84.64% |       83346      3.02%     87.66% |       83802      3.04%     90.70% |       83197      3.02%     93.72% |       85945      3.12%     96.84% |       87243      3.16%    100.00%
system.ruby.L2Cache_Controller.MT_MB.Exclusive_Unblock::total      2756727                      
system.ruby.L2Cache_Controller.MT_IIB.L1_GETS |           0      0.00%      0.00% |           1      3.23%      3.23% |           0      0.00%      3.23% |           2      6.45%      9.68% |           0      0.00%      9.68% |           2      6.45%     16.13% |           2      6.45%     22.58% |           0      0.00%     22.58% |           1      3.23%     25.81% |           1      3.23%     29.03% |           0      0.00%     29.03% |           1      3.23%     32.26% |           1      3.23%     35.48% |           2      6.45%     41.94% |           1      3.23%     45.16% |           0      0.00%     45.16% |           0      0.00%     45.16% |           1      3.23%     48.39% |           0      0.00%     48.39% |           1      3.23%     51.61% |           1      3.23%     54.84% |           1      3.23%     58.06% |           1      3.23%     61.29% |           1      3.23%     64.52% |           0      0.00%     64.52% |           2      6.45%     70.97% |           0      0.00%     70.97% |           2      6.45%     77.42% |           1      3.23%     80.65% |           2      6.45%     87.10% |           3      9.68%     96.77% |           1      3.23%    100.00%
system.ruby.L2Cache_Controller.MT_IIB.L1_GETS::total           31                      
system.ruby.L2Cache_Controller.MT_IIB.L1_PUTX |           3      1.27%      1.27% |           7      2.97%      4.24% |           2      0.85%      5.08% |           8      3.39%      8.47% |           1      0.42%      8.90% |           6      2.54%     11.44% |           3      1.27%     12.71% |           9      3.81%     16.53% |           4      1.69%     18.22% |           9      3.81%     22.03% |           6      2.54%     24.58% |          11      4.66%     29.24% |           7      2.97%     32.20% |          10      4.24%     36.44% |          10      4.24%     40.68% |           8      3.39%     44.07% |           3      1.27%     45.34% |           7      2.97%     48.31% |           8      3.39%     51.69% |           8      3.39%     55.08% |          11      4.66%     59.75% |           6      2.54%     62.29% |          11      4.66%     66.95% |           9      3.81%     70.76% |          12      5.08%     75.85% |          11      4.66%     80.51% |          10      4.24%     84.75% |          12      5.08%     89.83% |           7      2.97%     92.80% |           4      1.69%     94.49% |           8      3.39%     97.88% |           5      2.12%    100.00%
system.ruby.L2Cache_Controller.MT_IIB.L1_PUTX::total          236                      
system.ruby.L2Cache_Controller.MT_IIB.WB_Data |           0      0.00%      0.00% |           0      0.00%      0.00% |           0      0.00%      0.00% |           0      0.00%      0.00% |           0      0.00%      0.00% |           0      0.00%      0.00% |           0      0.00%      0.00% |           0      0.00%      0.00% |           0      0.00%      0.00% |           0      0.00%      0.00% |           0      0.00%      0.00% |           0      0.00%      0.00% |           0      0.00%      0.00% |           0      0.00%      0.00% |           0      0.00%      0.00% |           0      0.00%      0.00% |           0      0.00%      0.00% |           0      0.00%      0.00% |           0      0.00%      0.00% |           0      0.00%      0.00% |           0      0.00%      0.00% |           0      0.00%      0.00% |           0      0.00%      0.00% |           0      0.00%      0.00% |           0      0.00%      0.00% |           2    100.00%    100.00% |           0      0.00%    100.00% |           0      0.00%    100.00% |           0      0.00%    100.00% |           0      0.00%    100.00% |           0      0.00%    100.00% |           0      0.00%    100.00%
system.ruby.L2Cache_Controller.MT_IIB.WB_Data::total            2                      
system.ruby.L2Cache_Controller.MT_IIB.WB_Data_clean |        1744      3.06%      3.06% |        1776      3.11%      6.17% |        1781      3.12%      9.30% |        1755      3.08%     12.37% |        1738      3.05%     15.42% |        1812      3.18%     18.60% |        1798      3.15%     21.75% |        1795      3.15%     24.90% |        1789      3.14%     28.04% |        1810      3.17%     31.21% |        1851      3.25%     34.46% |        1811      3.18%     37.64% |        1795      3.15%     40.78% |        1815      3.18%     43.97% |        1806      3.17%     47.14% |        1817      3.19%     50.32% |        1804      3.16%     53.49% |        1810      3.17%     56.66% |        1843      3.23%     59.89% |        1776      3.11%     63.01% |        1700      2.98%     65.99% |        1800      3.16%     69.15% |        1784      3.13%     72.27% |        1780      3.12%     75.40% |        1758      3.08%     78.48% |        1766      3.10%     81.58% |        1760      3.09%     84.66% |        1696      2.97%     87.64% |        1742      3.06%     90.69% |        1763      3.09%     93.78% |        1752      3.07%     96.86% |        1792      3.14%    100.00%
system.ruby.L2Cache_Controller.MT_IIB.WB_Data_clean::total        57019                      
system.ruby.L2Cache_Controller.MT_IIB.Unblock |          23      1.49%      1.49% |          24      1.56%      3.05% |          38      2.46%      5.51% |          44      2.85%      8.37% |          38      2.46%     10.83% |          57      3.70%     14.53% |          57      3.70%     18.22% |          57      3.70%     21.92% |          90      5.84%     27.76% |          59      3.83%     31.58% |          54      3.50%     35.08% |          47      3.05%     38.13% |          46      2.98%     41.12% |          71      4.60%     45.72% |          58      3.76%     49.48% |          20      1.30%     50.78% |          56      3.63%     54.41% |          56      3.63%     58.04% |          51      3.31%     61.35% |          43      2.79%     64.14% |          94      6.10%     70.23% |          51      3.31%     73.54% |          42      2.72%     76.26% |          40      2.59%     78.86% |          23      1.49%     80.35% |          26      1.69%     82.04% |          39      2.53%     84.57% |          55      3.57%     88.13% |          23      1.49%     89.62% |          53      3.44%     93.06% |          33      2.14%     95.20% |          74      4.80%    100.00%
system.ruby.L2Cache_Controller.MT_IIB.Unblock::total         1542                      
system.ruby.L2Cache_Controller.MT_IB.WB_Data_clean |          23      1.49%      1.49% |          24      1.56%      3.05% |          38      2.46%      5.51% |          44      2.85%      8.37% |          38      2.46%     10.83% |          57      3.70%     14.53% |          57      3.70%     18.22% |          57      3.70%     21.92% |          90      5.84%     27.76% |          59      3.83%     31.58% |          54      3.50%     35.08% |          47      3.05%     38.13% |          46      2.98%     41.12% |          71      4.60%     45.72% |          58      3.76%     49.48% |          20      1.30%     50.78% |          56      3.63%     54.41% |          56      3.63%     58.04% |          51      3.31%     61.35% |          43      2.79%     64.14% |          94      6.10%     70.23% |          51      3.31%     73.54% |          42      2.72%     76.26% |          40      2.59%     78.86% |          23      1.49%     80.35% |          26      1.69%     82.04% |          39      2.53%     84.57% |          55      3.57%     88.13% |          23      1.49%     89.62% |          53      3.44%     93.06% |          33      2.14%     95.20% |          74      4.80%    100.00%
system.ruby.L2Cache_Controller.MT_IB.WB_Data_clean::total         1542                      
system.ruby.L2Cache_Controller.MT_SB.L1_GETS |           0      0.00%      0.00% |           0      0.00%      0.00% |           1     33.33%     33.33% |           0      0.00%     33.33% |           0      0.00%     33.33% |           0      0.00%     33.33% |           0      0.00%     33.33% |           0      0.00%     33.33% |           0      0.00%     33.33% |           0      0.00%     33.33% |           0      0.00%     33.33% |           0      0.00%     33.33% |           0      0.00%     33.33% |           0      0.00%     33.33% |           0      0.00%     33.33% |           0      0.00%     33.33% |           0      0.00%     33.33% |           0      0.00%     33.33% |           0      0.00%     33.33% |           1     33.33%     66.67% |           0      0.00%     66.67% |           0      0.00%     66.67% |           0      0.00%     66.67% |           0      0.00%     66.67% |           0      0.00%     66.67% |           0      0.00%     66.67% |           0      0.00%     66.67% |           1     33.33%    100.00% |           0      0.00%    100.00% |           0      0.00%    100.00% |           0      0.00%    100.00% |           0      0.00%    100.00%
system.ruby.L2Cache_Controller.MT_SB.L1_GETS::total            3                      
system.ruby.L2Cache_Controller.MT_SB.L1_PUTX |           1      5.26%      5.26% |           0      0.00%      5.26% |           0      0.00%      5.26% |           0      0.00%      5.26% |           1      5.26%     10.53% |           0      0.00%     10.53% |           0      0.00%     10.53% |           0      0.00%     10.53% |           1      5.26%     15.79% |           1      5.26%     21.05% |           0      0.00%     21.05% |           0      0.00%     21.05% |           1      5.26%     26.32% |           2     10.53%     36.84% |           0      0.00%     36.84% |           1      5.26%     42.11% |           0      0.00%     42.11% |           1      5.26%     47.37% |           0      0.00%     47.37% |           1      5.26%     52.63% |           1      5.26%     57.89% |           1      5.26%     63.16% |           1      5.26%     68.42% |           2     10.53%     78.95% |           0      0.00%     78.95% |           2     10.53%     89.47% |           0      0.00%     89.47% |           0      0.00%     89.47% |           1      5.26%     94.74% |           0      0.00%     94.74% |           0      0.00%     94.74% |           1      5.26%    100.00%
system.ruby.L2Cache_Controller.MT_SB.L1_PUTX::total           19                      
system.ruby.L2Cache_Controller.MT_SB.Unblock |        1744      3.06%      3.06% |        1776      3.11%      6.17% |        1781      3.12%      9.30% |        1755      3.08%     12.37% |        1738      3.05%     15.42% |        1812      3.18%     18.60% |        1798      3.15%     21.75% |        1795      3.15%     24.90% |        1789      3.14%     28.04% |        1810      3.17%     31.21% |        1851      3.25%     34.46% |        1811      3.18%     37.64% |        1795      3.15%     40.78% |        1815      3.18%     43.97% |        1806      3.17%     47.13% |        1817      3.19%     50.32% |        1804      3.16%     53.48% |        1810      3.17%     56.66% |        1843      3.23%     59.89% |        1776      3.11%     63.00% |        1700      2.98%     65.99% |        1800      3.16%     69.14% |        1784      3.13%     72.27% |        1780      3.12%     75.39% |        1758      3.08%     78.48% |        1768      3.10%     81.58% |        1760      3.09%     84.66% |        1696      2.97%     87.64% |        1742      3.06%     90.69% |        1763      3.09%     93.78% |        1752      3.07%     96.86% |        1792      3.14%    100.00%
system.ruby.L2Cache_Controller.MT_SB.Unblock::total        57021                      
system.ruby.SimicsNetworkPortInterface_Controller.MessageSend |     1194957     24.33%     24.33% |     2455795     50.00%     74.33% |      111559      2.27%     76.60% |      128583      2.62%     79.22% |      133681      2.72%     81.94% |      138086      2.81%     84.75% |      167145      3.40%     88.15% |      164174      3.34%     91.50% |      210396      4.28%     95.78% |      207214      4.22%    100.00% |           0      0.00%    100.00% |           0      0.00%    100.00% |           0      0.00%    100.00% |           0      0.00%    100.00% |           0      0.00%    100.00% |           0      0.00%    100.00% |           0      0.00%    100.00% |           0      0.00%    100.00% |           0      0.00%    100.00% |           0      0.00%    100.00% |           0      0.00%    100.00% |           0      0.00%    100.00% |           0      0.00%    100.00% |           0      0.00%    100.00% |           0      0.00%    100.00% |           0      0.00%    100.00% |           0      0.00%    100.00% |           0      0.00%    100.00% |           0      0.00%    100.00% |           0      0.00%    100.00% |           0      0.00%    100.00% |           0      0.00%    100.00%
system.ruby.SimicsNetworkPortInterface_Controller.MessageSend::total      4911590                      
system.ruby.SimicsNetworkPortInterface_Controller.MessageRecv |     1194957     24.33%     24.33% |     2455795     50.00%     74.33% |      111559      2.27%     76.60% |      128583      2.62%     79.22% |      133681      2.72%     81.94% |      138086      2.81%     84.75% |      167145      3.40%     88.15% |      164174      3.34%     91.50% |      210396      4.28%     95.78% |      207214      4.22%    100.00% |           0      0.00%    100.00% |           0      0.00%    100.00% |           0      0.00%    100.00% |           0      0.00%    100.00% |           0      0.00%    100.00% |           0      0.00%    100.00% |           0      0.00%    100.00% |           0      0.00%    100.00% |           0      0.00%    100.00% |           0      0.00%    100.00% |           0      0.00%    100.00% |           0      0.00%    100.00% |           0      0.00%    100.00% |           0      0.00%    100.00% |           0      0.00%    100.00% |           0      0.00%    100.00% |           0      0.00%    100.00% |           0      0.00%    100.00% |           0      0.00%    100.00% |           0      0.00%    100.00% |           0      0.00%    100.00% |           0      0.00%    100.00%
system.ruby.SimicsNetworkPortInterface_Controller.MessageRecv::total      4911590                      
system.ruby.SimicsNetworkPortInterface_Controller.A.MessageSend |     1194957     24.33%     24.33% |     2455795     50.00%     74.33% |      111559      2.27%     76.60% |      128583      2.62%     79.22% |      133681      2.72%     81.94% |      138086      2.81%     84.75% |      167145      3.40%     88.15% |      164174      3.34%     91.50% |      210396      4.28%     95.78% |      207214      4.22%    100.00% |           0      0.00%    100.00% |           0      0.00%    100.00% |           0      0.00%    100.00% |           0      0.00%    100.00% |           0      0.00%    100.00% |           0      0.00%    100.00% |           0      0.00%    100.00% |           0      0.00%    100.00% |           0      0.00%    100.00% |           0      0.00%    100.00% |           0      0.00%    100.00% |           0      0.00%    100.00% |           0      0.00%    100.00% |           0      0.00%    100.00% |           0      0.00%    100.00% |           0      0.00%    100.00% |           0      0.00%    100.00% |           0      0.00%    100.00% |           0      0.00%    100.00% |           0      0.00%    100.00% |           0      0.00%    100.00% |           0      0.00%    100.00%
system.ruby.SimicsNetworkPortInterface_Controller.A.MessageSend::total      4911590                      
system.ruby.SimicsNetworkPortInterface_Controller.A.MessageRecv |     1194957     24.33%     24.33% |     2455795     50.00%     74.33% |      111559      2.27%     76.60% |      128583      2.62%     79.22% |      133681      2.72%     81.94% |      138086      2.81%     84.75% |      167145      3.40%     88.15% |      164174      3.34%     91.50% |      210396      4.28%     95.78% |      207214      4.22%    100.00% |           0      0.00%    100.00% |           0      0.00%    100.00% |           0      0.00%    100.00% |           0      0.00%    100.00% |           0      0.00%    100.00% |           0      0.00%    100.00% |           0      0.00%    100.00% |           0      0.00%    100.00% |           0      0.00%    100.00% |           0      0.00%    100.00% |           0      0.00%    100.00% |           0      0.00%    100.00% |           0      0.00%    100.00% |           0      0.00%    100.00% |           0      0.00%    100.00% |           0      0.00%    100.00% |           0      0.00%    100.00% |           0      0.00%    100.00% |           0      0.00%    100.00% |           0      0.00%    100.00% |           0      0.00%    100.00% |           0      0.00%    100.00%
system.ruby.SimicsNetworkPortInterface_Controller.A.MessageRecv::total      4911590                      
system.switch_cpus.kern.inst.arm                    0                       # number of arm instructions executed
system.switch_cpus.kern.inst.quiesce                0                       # number of quiesce instructions executed

---------- End Simulation Statistics   ----------
