
---------- Begin Simulation Statistics ----------
sim_seconds                                  0.056733                       # Number of seconds simulated
sim_ticks                                 56733234000                       # Number of ticks simulated
final_tick                               5232901312500                       # Number of ticks from beginning of simulation (restored from checkpoints and never reset)
sim_freq                                 1000000000000                       # Frequency of simulated ticks
host_inst_rate                                  30284                       # Simulator instruction rate (inst/s)
host_op_rate                                    53709                       # Simulator op (including micro ops) rate (op/s)
host_tick_rate                               75945118                       # Simulator tick rate (ticks/s)
host_mem_usage                                3580644                       # Number of bytes of host memory used
host_seconds                                   747.03                       # Real time elapsed on the host
sim_insts                                    22623189                       # Number of instructions simulated
sim_ops                                      40122204                       # Number of ops (including micro ops) simulated
system.voltage_domain.voltage                       1                       # Voltage in Volts
system.clk_domain.clock                           500                       # Clock period in ticks
system.mem_ctrls0.bytes_read::ruby.dir_cntrl0     12638272                       # Number of bytes read from this memory
system.mem_ctrls0.bytes_read::total          12638272                       # Number of bytes read from this memory
system.mem_ctrls0.bytes_written::ruby.dir_cntrl0      8044224                       # Number of bytes written to this memory
system.mem_ctrls0.bytes_written::total        8044224                       # Number of bytes written to this memory
system.mem_ctrls0.num_reads::ruby.dir_cntrl0       197473                       # Number of read requests responded to by this memory
system.mem_ctrls0.num_reads::total             197473                       # Number of read requests responded to by this memory
system.mem_ctrls0.num_writes::ruby.dir_cntrl0       125691                       # Number of write requests responded to by this memory
system.mem_ctrls0.num_writes::total            125691                       # Number of write requests responded to by this memory
system.mem_ctrls0.bw_read::ruby.dir_cntrl0    222766642                       # Total read bandwidth from this memory (bytes/s)
system.mem_ctrls0.bw_read::total            222766642                       # Total read bandwidth from this memory (bytes/s)
system.mem_ctrls0.bw_write::ruby.dir_cntrl0    141790331                       # Write bandwidth from this memory (bytes/s)
system.mem_ctrls0.bw_write::total           141790331                       # Write bandwidth from this memory (bytes/s)
system.mem_ctrls0.bw_total::ruby.dir_cntrl0    364556972                       # Total bandwidth to/from this memory (bytes/s)
system.mem_ctrls0.bw_total::total           364556972                       # Total bandwidth to/from this memory (bytes/s)
system.mem_ctrls0.readReqs                     197473                       # Number of read requests accepted
system.mem_ctrls0.writeReqs                    125691                       # Number of write requests accepted
system.mem_ctrls0.readBursts                   197473                       # Number of DRAM read bursts, including those serviced by the write queue
system.mem_ctrls0.writeBursts                  125691                       # Number of DRAM write bursts, including those merged in the write queue
system.mem_ctrls0.bytesReadDRAM              12636544                       # Total number of bytes read from DRAM
system.mem_ctrls0.bytesReadWrQ                   1728                       # Total number of bytes read from write queue
system.mem_ctrls0.bytesWritten                8044160                       # Total number of bytes written to DRAM
system.mem_ctrls0.bytesReadSys               12638272                       # Total read bytes from the system interface side
system.mem_ctrls0.bytesWrittenSys             8044224                       # Total written bytes from the system interface side
system.mem_ctrls0.servicedByWrQ                    27                       # Number of DRAM read bursts serviced by the write queue
system.mem_ctrls0.mergedWrBursts                    0                       # Number of DRAM write bursts merged with an existing one
system.mem_ctrls0.neitherReadNorWriteReqs            0                       # Number of requests that are neither read nor write
system.mem_ctrls0.perBankRdBursts::0            12095                       # Per bank write bursts
system.mem_ctrls0.perBankRdBursts::1            12207                       # Per bank write bursts
system.mem_ctrls0.perBankRdBursts::2            12079                       # Per bank write bursts
system.mem_ctrls0.perBankRdBursts::3            12421                       # Per bank write bursts
system.mem_ctrls0.perBankRdBursts::4            12210                       # Per bank write bursts
system.mem_ctrls0.perBankRdBursts::5            12291                       # Per bank write bursts
system.mem_ctrls0.perBankRdBursts::6            12513                       # Per bank write bursts
system.mem_ctrls0.perBankRdBursts::7            12664                       # Per bank write bursts
system.mem_ctrls0.perBankRdBursts::8            12448                       # Per bank write bursts
system.mem_ctrls0.perBankRdBursts::9            12789                       # Per bank write bursts
system.mem_ctrls0.perBankRdBursts::10           12431                       # Per bank write bursts
system.mem_ctrls0.perBankRdBursts::11           12743                       # Per bank write bursts
system.mem_ctrls0.perBankRdBursts::12           12285                       # Per bank write bursts
system.mem_ctrls0.perBankRdBursts::13           12043                       # Per bank write bursts
system.mem_ctrls0.perBankRdBursts::14           12311                       # Per bank write bursts
system.mem_ctrls0.perBankRdBursts::15           11916                       # Per bank write bursts
system.mem_ctrls0.perBankWrBursts::0             7793                       # Per bank write bursts
system.mem_ctrls0.perBankWrBursts::1             7658                       # Per bank write bursts
system.mem_ctrls0.perBankWrBursts::2             7795                       # Per bank write bursts
system.mem_ctrls0.perBankWrBursts::3             7841                       # Per bank write bursts
system.mem_ctrls0.perBankWrBursts::4             7799                       # Per bank write bursts
system.mem_ctrls0.perBankWrBursts::5             7885                       # Per bank write bursts
system.mem_ctrls0.perBankWrBursts::6             8011                       # Per bank write bursts
system.mem_ctrls0.perBankWrBursts::7             8031                       # Per bank write bursts
system.mem_ctrls0.perBankWrBursts::8             7920                       # Per bank write bursts
system.mem_ctrls0.perBankWrBursts::9             8077                       # Per bank write bursts
system.mem_ctrls0.perBankWrBursts::10            7880                       # Per bank write bursts
system.mem_ctrls0.perBankWrBursts::11            7914                       # Per bank write bursts
system.mem_ctrls0.perBankWrBursts::12            7762                       # Per bank write bursts
system.mem_ctrls0.perBankWrBursts::13            7817                       # Per bank write bursts
system.mem_ctrls0.perBankWrBursts::14            7879                       # Per bank write bursts
system.mem_ctrls0.perBankWrBursts::15            7628                       # Per bank write bursts
system.mem_ctrls0.numRdRetry                    71652                       # Number of times read queue was full causing retry
system.mem_ctrls0.numWrRetry                     6527                       # Number of times write queue was full causing retry
system.mem_ctrls0.totGap                  56732722500                       # Total gap between requests
system.mem_ctrls0.readPktSize::0                    0                       # Read request sizes (log2)
system.mem_ctrls0.readPktSize::1                    0                       # Read request sizes (log2)
system.mem_ctrls0.readPktSize::2                    0                       # Read request sizes (log2)
system.mem_ctrls0.readPktSize::3                    0                       # Read request sizes (log2)
system.mem_ctrls0.readPktSize::4                    0                       # Read request sizes (log2)
system.mem_ctrls0.readPktSize::5                    0                       # Read request sizes (log2)
system.mem_ctrls0.readPktSize::6               197473                       # Read request sizes (log2)
system.mem_ctrls0.writePktSize::0                   0                       # Write request sizes (log2)
system.mem_ctrls0.writePktSize::1                   0                       # Write request sizes (log2)
system.mem_ctrls0.writePktSize::2                   0                       # Write request sizes (log2)
system.mem_ctrls0.writePktSize::3                   0                       # Write request sizes (log2)
system.mem_ctrls0.writePktSize::4                   0                       # Write request sizes (log2)
system.mem_ctrls0.writePktSize::5                   0                       # Write request sizes (log2)
system.mem_ctrls0.writePktSize::6              125691                       # Write request sizes (log2)
system.mem_ctrls0.rdQLenPdf::0                  68915                       # What read queue length does an incoming req see
system.mem_ctrls0.rdQLenPdf::1                   3039                       # What read queue length does an incoming req see
system.mem_ctrls0.rdQLenPdf::2                   1854                       # What read queue length does an incoming req see
system.mem_ctrls0.rdQLenPdf::3                   1207                       # What read queue length does an incoming req see
system.mem_ctrls0.rdQLenPdf::4                   1274                       # What read queue length does an incoming req see
system.mem_ctrls0.rdQLenPdf::5                   1370                       # What read queue length does an incoming req see
system.mem_ctrls0.rdQLenPdf::6                   1455                       # What read queue length does an incoming req see
system.mem_ctrls0.rdQLenPdf::7                   1545                       # What read queue length does an incoming req see
system.mem_ctrls0.rdQLenPdf::8                   1578                       # What read queue length does an incoming req see
system.mem_ctrls0.rdQLenPdf::9                   1663                       # What read queue length does an incoming req see
system.mem_ctrls0.rdQLenPdf::10                  1706                       # What read queue length does an incoming req see
system.mem_ctrls0.rdQLenPdf::11                  1665                       # What read queue length does an incoming req see
system.mem_ctrls0.rdQLenPdf::12                  1656                       # What read queue length does an incoming req see
system.mem_ctrls0.rdQLenPdf::13                  1662                       # What read queue length does an incoming req see
system.mem_ctrls0.rdQLenPdf::14                  1615                       # What read queue length does an incoming req see
system.mem_ctrls0.rdQLenPdf::15                  1615                       # What read queue length does an incoming req see
system.mem_ctrls0.rdQLenPdf::16                  1630                       # What read queue length does an incoming req see
system.mem_ctrls0.rdQLenPdf::17                  1681                       # What read queue length does an incoming req see
system.mem_ctrls0.rdQLenPdf::18                  1691                       # What read queue length does an incoming req see
system.mem_ctrls0.rdQLenPdf::19                  1701                       # What read queue length does an incoming req see
system.mem_ctrls0.rdQLenPdf::20                  1756                       # What read queue length does an incoming req see
system.mem_ctrls0.rdQLenPdf::21                  1820                       # What read queue length does an incoming req see
system.mem_ctrls0.rdQLenPdf::22                  1772                       # What read queue length does an incoming req see
system.mem_ctrls0.rdQLenPdf::23                  1768                       # What read queue length does an incoming req see
system.mem_ctrls0.rdQLenPdf::24                  1828                       # What read queue length does an incoming req see
system.mem_ctrls0.rdQLenPdf::25                  1902                       # What read queue length does an incoming req see
system.mem_ctrls0.rdQLenPdf::26                  2027                       # What read queue length does an incoming req see
system.mem_ctrls0.rdQLenPdf::27                  2018                       # What read queue length does an incoming req see
system.mem_ctrls0.rdQLenPdf::28                  2129                       # What read queue length does an incoming req see
system.mem_ctrls0.rdQLenPdf::29                  2259                       # What read queue length does an incoming req see
system.mem_ctrls0.rdQLenPdf::30                  2544                       # What read queue length does an incoming req see
system.mem_ctrls0.rdQLenPdf::31                 75101                       # What read queue length does an incoming req see
system.mem_ctrls0.wrQLenPdf::0                  16824                       # What write queue length does an incoming req see
system.mem_ctrls0.wrQLenPdf::1                  18330                       # What write queue length does an incoming req see
system.mem_ctrls0.wrQLenPdf::2                  19183                       # What write queue length does an incoming req see
system.mem_ctrls0.wrQLenPdf::3                  19680                       # What write queue length does an incoming req see
system.mem_ctrls0.wrQLenPdf::4                  20068                       # What write queue length does an incoming req see
system.mem_ctrls0.wrQLenPdf::5                   8333                       # What write queue length does an incoming req see
system.mem_ctrls0.wrQLenPdf::6                   9445                       # What write queue length does an incoming req see
system.mem_ctrls0.wrQLenPdf::7                  13828                       # What write queue length does an incoming req see
system.mem_ctrls0.bytesPerActivate::samples        82894                       # Bytes accessed per row activation
system.mem_ctrls0.bytesPerActivate::mean   249.472145                       # Bytes accessed per row activation
system.mem_ctrls0.bytesPerActivate::gmean   177.660845                       # Bytes accessed per row activation
system.mem_ctrls0.bytesPerActivate::stdev   219.975657                       # Bytes accessed per row activation
system.mem_ctrls0.bytesPerActivate::0-127        25113     30.30%     30.30% # Bytes accessed per row activation
system.mem_ctrls0.bytesPerActivate::128-255        21052     25.40%     55.69% # Bytes accessed per row activation
system.mem_ctrls0.bytesPerActivate::256-383        21754     26.24%     81.93% # Bytes accessed per row activation
system.mem_ctrls0.bytesPerActivate::384-511         5116      6.17%     88.11% # Bytes accessed per row activation
system.mem_ctrls0.bytesPerActivate::512-639         3617      4.36%     92.47% # Bytes accessed per row activation
system.mem_ctrls0.bytesPerActivate::640-767         1938      2.34%     94.81% # Bytes accessed per row activation
system.mem_ctrls0.bytesPerActivate::768-895         1214      1.46%     96.27% # Bytes accessed per row activation
system.mem_ctrls0.bytesPerActivate::896-1023          845      1.02%     97.29% # Bytes accessed per row activation
system.mem_ctrls0.bytesPerActivate::1024-1151         2245      2.71%    100.00% # Bytes accessed per row activation
system.mem_ctrls0.bytesPerActivate::total        82894                       # Bytes accessed per row activation
system.mem_ctrls0.rdPerTurnAround::samples        17589                       # Reads before turning the bus around for writes
system.mem_ctrls0.rdPerTurnAround::mean     11.225141                       # Reads before turning the bus around for writes
system.mem_ctrls0.rdPerTurnAround::stdev    32.134416                       # Reads before turning the bus around for writes
system.mem_ctrls0.rdPerTurnAround::0-127        17581     99.95%     99.95% # Reads before turning the bus around for writes
system.mem_ctrls0.rdPerTurnAround::128-255            7      0.04%     99.99% # Reads before turning the bus around for writes
system.mem_ctrls0.rdPerTurnAround::3968-4095            1      0.01%    100.00% # Reads before turning the bus around for writes
system.mem_ctrls0.rdPerTurnAround::total        17589                       # Reads before turning the bus around for writes
system.mem_ctrls0.wrPerTurnAround::samples        17589                       # Writes before turning the bus around for reads
system.mem_ctrls0.wrPerTurnAround::mean      7.145943                       # Writes before turning the bus around for reads
system.mem_ctrls0.wrPerTurnAround::gmean     6.485649                       # Writes before turning the bus around for reads
system.mem_ctrls0.wrPerTurnAround::stdev     3.591666                       # Writes before turning the bus around for reads
system.mem_ctrls0.wrPerTurnAround::4-7          12629     71.80%     71.80% # Writes before turning the bus around for reads
system.mem_ctrls0.wrPerTurnAround::8-11          2079     11.82%     83.62% # Writes before turning the bus around for reads
system.mem_ctrls0.wrPerTurnAround::12-15         1738      9.88%     93.50% # Writes before turning the bus around for reads
system.mem_ctrls0.wrPerTurnAround::16-19         1143      6.50%    100.00% # Writes before turning the bus around for reads
system.mem_ctrls0.wrPerTurnAround::total        17589                       # Writes before turning the bus around for reads
system.mem_ctrls0.totQLat                 32585708834                       # Total ticks spent queuing
system.mem_ctrls0.totMemAccLat            36287821334                       # Total ticks spent from burst creation until serviced by the DRAM
system.mem_ctrls0.totBusLat                 987230000                       # Total ticks spent in databus transfers
system.mem_ctrls0.avgQLat                   165036.05                       # Average queueing delay per DRAM burst
system.mem_ctrls0.avgBusLat                   5000.00                       # Average bus latency per DRAM burst
system.mem_ctrls0.avgMemAccLat              183786.05                       # Average memory access latency per DRAM burst
system.mem_ctrls0.avgRdBW                      222.74                       # Average DRAM read bandwidth in MiByte/s
system.mem_ctrls0.avgWrBW                      141.79                       # Average achieved write bandwidth in MiByte/s
system.mem_ctrls0.avgRdBWSys                   222.77                       # Average system read bandwidth in MiByte/s
system.mem_ctrls0.avgWrBWSys                   141.79                       # Average system write bandwidth in MiByte/s
system.mem_ctrls0.peakBW                     12800.00                       # Theoretical peak bandwidth in MiByte/s
system.mem_ctrls0.busUtil                        2.85                       # Data bus utilization in percentage
system.mem_ctrls0.busUtilRead                    1.74                       # Data bus utilization in percentage for reads
system.mem_ctrls0.busUtilWrite                   1.11                       # Data bus utilization in percentage for writes
system.mem_ctrls0.avgRdQLen                      1.60                       # Average read queue length when enqueuing
system.mem_ctrls0.avgWrQLen                      2.93                       # Average write queue length when enqueuing
system.mem_ctrls0.readRowHits                  155362                       # Number of row buffer hits during reads
system.mem_ctrls0.writeRowHits                  84870                       # Number of row buffer hits during writes
system.mem_ctrls0.readRowHitRate                78.69                       # Row buffer hit rate for reads
system.mem_ctrls0.writeRowHitRate               67.52                       # Row buffer hit rate for writes
system.mem_ctrls0.avgGap                    175553.97                       # Average gap between requests
system.mem_ctrls0.pageHitRate                   74.34                       # Row buffer hit rate, read and write combined
system.mem_ctrls0.memoryStateTime::IDLE   11626461750                       # Time in different power states
system.mem_ctrls0.memoryStateTime::REF     1894360000                       # Time in different power states
system.mem_ctrls0.memoryStateTime::PRE_PDN            0                       # Time in different power states
system.mem_ctrls0.memoryStateTime::ACT    43210080750                       # Time in different power states
system.mem_ctrls0.memoryStateTime::ACT_PDN            0                       # Time in different power states
system.mem_ctrls0.actEnergy::0              316060920                       # Energy for activate commands per rank (pJ)
system.mem_ctrls0.actEnergy::1              310595040                       # Energy for activate commands per rank (pJ)
system.mem_ctrls0.preEnergy::0              172453875                       # Energy for precharge commands per rank (pJ)
system.mem_ctrls0.preEnergy::1              169471500                       # Energy for precharge commands per rank (pJ)
system.mem_ctrls0.readEnergy::0             768112800                       # Energy for read commands per rank (pJ)
system.mem_ctrls0.readEnergy::1             771864600                       # Energy for read commands per rank (pJ)
system.mem_ctrls0.writeEnergy::0            407002320                       # Energy for write commands per rank (pJ)
system.mem_ctrls0.writeEnergy::1            407436480                       # Energy for write commands per rank (pJ)
system.mem_ctrls0.refreshEnergy::0         3705368160                       # Energy for refresh commands per rank (pJ)
system.mem_ctrls0.refreshEnergy::1         3705368160                       # Energy for refresh commands per rank (pJ)
system.mem_ctrls0.actBackEnergy::0        22312067175                       # Energy for active background per rank (pJ)
system.mem_ctrls0.actBackEnergy::1        21789687825                       # Energy for active background per rank (pJ)
system.mem_ctrls0.preBackEnergy::0        14466544500                       # Energy for precharge background per rank (pJ)
system.mem_ctrls0.preBackEnergy::1        14924772000                       # Energy for precharge background per rank (pJ)
system.mem_ctrls0.totalEnergy::0          42147609750                       # Total energy per rank (pJ)
system.mem_ctrls0.totalEnergy::1          42079195605                       # Total energy per rank (pJ)
system.mem_ctrls0.averagePower::0          742.939352                       # Core power per rank (mW)
system.mem_ctrls0.averagePower::1          741.733411                       # Core power per rank (mW)
system.mem_ctrls1.bytes_read::ruby.dir_cntrl1     12411328                       # Number of bytes read from this memory
system.mem_ctrls1.bytes_read::total          12411328                       # Number of bytes read from this memory
system.mem_ctrls1.bytes_written::ruby.dir_cntrl1      7826752                       # Number of bytes written to this memory
system.mem_ctrls1.bytes_written::total        7826752                       # Number of bytes written to this memory
system.mem_ctrls1.num_reads::ruby.dir_cntrl1       193927                       # Number of read requests responded to by this memory
system.mem_ctrls1.num_reads::total             193927                       # Number of read requests responded to by this memory
system.mem_ctrls1.num_writes::ruby.dir_cntrl1       122293                       # Number of write requests responded to by this memory
system.mem_ctrls1.num_writes::total            122293                       # Number of write requests responded to by this memory
system.mem_ctrls1.bw_read::ruby.dir_cntrl1    218766446                       # Total read bandwidth from this memory (bytes/s)
system.mem_ctrls1.bw_read::total            218766446                       # Total read bandwidth from this memory (bytes/s)
system.mem_ctrls1.bw_write::ruby.dir_cntrl1    137957092                       # Write bandwidth from this memory (bytes/s)
system.mem_ctrls1.bw_write::total           137957092                       # Write bandwidth from this memory (bytes/s)
system.mem_ctrls1.bw_total::ruby.dir_cntrl1    356723539                       # Total bandwidth to/from this memory (bytes/s)
system.mem_ctrls1.bw_total::total           356723539                       # Total bandwidth to/from this memory (bytes/s)
system.mem_ctrls1.readReqs                     193929                       # Number of read requests accepted
system.mem_ctrls1.writeReqs                    122293                       # Number of write requests accepted
system.mem_ctrls1.readBursts                   193929                       # Number of DRAM read bursts, including those serviced by the write queue
system.mem_ctrls1.writeBursts                  122293                       # Number of DRAM write bursts, including those merged in the write queue
system.mem_ctrls1.bytesReadDRAM              12409472                       # Total number of bytes read from DRAM
system.mem_ctrls1.bytesReadWrQ                   1984                       # Total number of bytes read from write queue
system.mem_ctrls1.bytesWritten                7826688                       # Total number of bytes written to DRAM
system.mem_ctrls1.bytesReadSys               12411456                       # Total read bytes from the system interface side
system.mem_ctrls1.bytesWrittenSys             7826752                       # Total written bytes from the system interface side
system.mem_ctrls1.servicedByWrQ                    31                       # Number of DRAM read bursts serviced by the write queue
system.mem_ctrls1.mergedWrBursts                    0                       # Number of DRAM write bursts merged with an existing one
system.mem_ctrls1.neitherReadNorWriteReqs            0                       # Number of requests that are neither read nor write
system.mem_ctrls1.perBankRdBursts::0            11884                       # Per bank write bursts
system.mem_ctrls1.perBankRdBursts::1            11985                       # Per bank write bursts
system.mem_ctrls1.perBankRdBursts::2            11852                       # Per bank write bursts
system.mem_ctrls1.perBankRdBursts::3            12185                       # Per bank write bursts
system.mem_ctrls1.perBankRdBursts::4            12010                       # Per bank write bursts
system.mem_ctrls1.perBankRdBursts::5            12103                       # Per bank write bursts
system.mem_ctrls1.perBankRdBursts::6            12327                       # Per bank write bursts
system.mem_ctrls1.perBankRdBursts::7            12452                       # Per bank write bursts
system.mem_ctrls1.perBankRdBursts::8            12214                       # Per bank write bursts
system.mem_ctrls1.perBankRdBursts::9            12561                       # Per bank write bursts
system.mem_ctrls1.perBankRdBursts::10           12196                       # Per bank write bursts
system.mem_ctrls1.perBankRdBursts::11           12555                       # Per bank write bursts
system.mem_ctrls1.perBankRdBursts::12           12051                       # Per bank write bursts
system.mem_ctrls1.perBankRdBursts::13           11810                       # Per bank write bursts
system.mem_ctrls1.perBankRdBursts::14           12000                       # Per bank write bursts
system.mem_ctrls1.perBankRdBursts::15           11713                       # Per bank write bursts
system.mem_ctrls1.perBankWrBursts::0             7590                       # Per bank write bursts
system.mem_ctrls1.perBankWrBursts::1             7467                       # Per bank write bursts
system.mem_ctrls1.perBankWrBursts::2             7592                       # Per bank write bursts
system.mem_ctrls1.perBankWrBursts::3             7630                       # Per bank write bursts
system.mem_ctrls1.perBankWrBursts::4             7602                       # Per bank write bursts
system.mem_ctrls1.perBankWrBursts::5             7686                       # Per bank write bursts
system.mem_ctrls1.perBankWrBursts::6             7788                       # Per bank write bursts
system.mem_ctrls1.perBankWrBursts::7             7809                       # Per bank write bursts
system.mem_ctrls1.perBankWrBursts::8             7709                       # Per bank write bursts
system.mem_ctrls1.perBankWrBursts::9             7860                       # Per bank write bursts
system.mem_ctrls1.perBankWrBursts::10            7662                       # Per bank write bursts
system.mem_ctrls1.perBankWrBursts::11            7702                       # Per bank write bursts
system.mem_ctrls1.perBankWrBursts::12            7553                       # Per bank write bursts
system.mem_ctrls1.perBankWrBursts::13            7603                       # Per bank write bursts
system.mem_ctrls1.perBankWrBursts::14            7611                       # Per bank write bursts
system.mem_ctrls1.perBankWrBursts::15            7428                       # Per bank write bursts
system.mem_ctrls1.numRdRetry                    63932                       # Number of times read queue was full causing retry
system.mem_ctrls1.numWrRetry                     6159                       # Number of times write queue was full causing retry
system.mem_ctrls1.totGap                  56732602000                       # Total gap between requests
system.mem_ctrls1.readPktSize::0                    0                       # Read request sizes (log2)
system.mem_ctrls1.readPktSize::1                    0                       # Read request sizes (log2)
system.mem_ctrls1.readPktSize::2                    0                       # Read request sizes (log2)
system.mem_ctrls1.readPktSize::3                    0                       # Read request sizes (log2)
system.mem_ctrls1.readPktSize::4                    0                       # Read request sizes (log2)
system.mem_ctrls1.readPktSize::5                    0                       # Read request sizes (log2)
system.mem_ctrls1.readPktSize::6               193929                       # Read request sizes (log2)
system.mem_ctrls1.writePktSize::0                   0                       # Write request sizes (log2)
system.mem_ctrls1.writePktSize::1                   0                       # Write request sizes (log2)
system.mem_ctrls1.writePktSize::2                   0                       # Write request sizes (log2)
system.mem_ctrls1.writePktSize::3                   0                       # Write request sizes (log2)
system.mem_ctrls1.writePktSize::4                   0                       # Write request sizes (log2)
system.mem_ctrls1.writePktSize::5                   0                       # Write request sizes (log2)
system.mem_ctrls1.writePktSize::6              122293                       # Write request sizes (log2)
system.mem_ctrls1.rdQLenPdf::0                  67677                       # What read queue length does an incoming req see
system.mem_ctrls1.rdQLenPdf::1                   1627                       # What read queue length does an incoming req see
system.mem_ctrls1.rdQLenPdf::2                   1376                       # What read queue length does an incoming req see
system.mem_ctrls1.rdQLenPdf::3                   1487                       # What read queue length does an incoming req see
system.mem_ctrls1.rdQLenPdf::4                   1574                       # What read queue length does an incoming req see
system.mem_ctrls1.rdQLenPdf::5                   1638                       # What read queue length does an incoming req see
system.mem_ctrls1.rdQLenPdf::6                   1770                       # What read queue length does an incoming req see
system.mem_ctrls1.rdQLenPdf::7                   1851                       # What read queue length does an incoming req see
system.mem_ctrls1.rdQLenPdf::8                   1838                       # What read queue length does an incoming req see
system.mem_ctrls1.rdQLenPdf::9                   1959                       # What read queue length does an incoming req see
system.mem_ctrls1.rdQLenPdf::10                  1990                       # What read queue length does an incoming req see
system.mem_ctrls1.rdQLenPdf::11                  1978                       # What read queue length does an incoming req see
system.mem_ctrls1.rdQLenPdf::12                  1888                       # What read queue length does an incoming req see
system.mem_ctrls1.rdQLenPdf::13                  1921                       # What read queue length does an incoming req see
system.mem_ctrls1.rdQLenPdf::14                  1943                       # What read queue length does an incoming req see
system.mem_ctrls1.rdQLenPdf::15                  1931                       # What read queue length does an incoming req see
system.mem_ctrls1.rdQLenPdf::16                  1974                       # What read queue length does an incoming req see
system.mem_ctrls1.rdQLenPdf::17                  1956                       # What read queue length does an incoming req see
system.mem_ctrls1.rdQLenPdf::18                  1949                       # What read queue length does an incoming req see
system.mem_ctrls1.rdQLenPdf::19                  1984                       # What read queue length does an incoming req see
system.mem_ctrls1.rdQLenPdf::20                  2016                       # What read queue length does an incoming req see
system.mem_ctrls1.rdQLenPdf::21                  1984                       # What read queue length does an incoming req see
system.mem_ctrls1.rdQLenPdf::22                  1954                       # What read queue length does an incoming req see
system.mem_ctrls1.rdQLenPdf::23                  2013                       # What read queue length does an incoming req see
system.mem_ctrls1.rdQLenPdf::24                  1988                       # What read queue length does an incoming req see
system.mem_ctrls1.rdQLenPdf::25                  2081                       # What read queue length does an incoming req see
system.mem_ctrls1.rdQLenPdf::26                  2199                       # What read queue length does an incoming req see
system.mem_ctrls1.rdQLenPdf::27                  2341                       # What read queue length does an incoming req see
system.mem_ctrls1.rdQLenPdf::28                  2339                       # What read queue length does an incoming req see
system.mem_ctrls1.rdQLenPdf::29                  2558                       # What read queue length does an incoming req see
system.mem_ctrls1.rdQLenPdf::30                  2799                       # What read queue length does an incoming req see
system.mem_ctrls1.rdQLenPdf::31                 67315                       # What read queue length does an incoming req see
system.mem_ctrls1.wrQLenPdf::0                  16334                       # What write queue length does an incoming req see
system.mem_ctrls1.wrQLenPdf::1                  17992                       # What write queue length does an incoming req see
system.mem_ctrls1.wrQLenPdf::2                  18734                       # What write queue length does an incoming req see
system.mem_ctrls1.wrQLenPdf::3                  19280                       # What write queue length does an incoming req see
system.mem_ctrls1.wrQLenPdf::4                  19652                       # What write queue length does an incoming req see
system.mem_ctrls1.wrQLenPdf::5                   8123                       # What write queue length does an incoming req see
system.mem_ctrls1.wrQLenPdf::6                   9167                       # What write queue length does an incoming req see
system.mem_ctrls1.wrQLenPdf::7                  13011                       # What write queue length does an incoming req see
system.mem_ctrls1.bytesPerActivate::samples        75729                       # Bytes accessed per row activation
system.mem_ctrls1.bytesPerActivate::mean   267.207120                       # Bytes accessed per row activation
system.mem_ctrls1.bytesPerActivate::gmean   194.598754                       # Bytes accessed per row activation
system.mem_ctrls1.bytesPerActivate::stdev   223.783887                       # Bytes accessed per row activation
system.mem_ctrls1.bytesPerActivate::0-127        18784     24.80%     24.80% # Bytes accessed per row activation
system.mem_ctrls1.bytesPerActivate::128-255        20042     26.47%     51.27% # Bytes accessed per row activation
system.mem_ctrls1.bytesPerActivate::256-383        21788     28.77%     80.04% # Bytes accessed per row activation
system.mem_ctrls1.bytesPerActivate::384-511         5230      6.91%     86.95% # Bytes accessed per row activation
system.mem_ctrls1.bytesPerActivate::512-639         3684      4.86%     91.81% # Bytes accessed per row activation
system.mem_ctrls1.bytesPerActivate::640-767         1823      2.41%     94.22% # Bytes accessed per row activation
system.mem_ctrls1.bytesPerActivate::768-895         1252      1.65%     95.87% # Bytes accessed per row activation
system.mem_ctrls1.bytesPerActivate::896-1023          781      1.03%     96.90% # Bytes accessed per row activation
system.mem_ctrls1.bytesPerActivate::1024-1151         2345      3.10%    100.00% # Bytes accessed per row activation
system.mem_ctrls1.bytesPerActivate::total        75729                       # Bytes accessed per row activation
system.mem_ctrls1.rdPerTurnAround::samples        17081                       # Reads before turning the bus around for writes
system.mem_ctrls1.rdPerTurnAround::mean     11.350975                       # Reads before turning the bus around for writes
system.mem_ctrls1.rdPerTurnAround::stdev    26.518513                       # Reads before turning the bus around for writes
system.mem_ctrls1.rdPerTurnAround::0-127        17073     99.95%     99.95% # Reads before turning the bus around for writes
system.mem_ctrls1.rdPerTurnAround::128-255            6      0.04%     99.99% # Reads before turning the bus around for writes
system.mem_ctrls1.rdPerTurnAround::1152-1279            1      0.01%     99.99% # Reads before turning the bus around for writes
system.mem_ctrls1.rdPerTurnAround::2816-2943            1      0.01%    100.00% # Reads before turning the bus around for writes
system.mem_ctrls1.rdPerTurnAround::total        17081                       # Reads before turning the bus around for writes
system.mem_ctrls1.wrPerTurnAround::samples        17081                       # Writes before turning the bus around for reads
system.mem_ctrls1.wrPerTurnAround::mean      7.159534                       # Writes before turning the bus around for reads
system.mem_ctrls1.wrPerTurnAround::gmean     6.499090                       # Writes before turning the bus around for reads
system.mem_ctrls1.wrPerTurnAround::stdev     3.585084                       # Writes before turning the bus around for reads
system.mem_ctrls1.wrPerTurnAround::4-7          12139     71.07%     71.07% # Writes before turning the bus around for reads
system.mem_ctrls1.wrPerTurnAround::8-11          2173     12.72%     83.79% # Writes before turning the bus around for reads
system.mem_ctrls1.wrPerTurnAround::12-15         1680      9.84%     93.62% # Writes before turning the bus around for reads
system.mem_ctrls1.wrPerTurnAround::16-19         1089      6.38%    100.00% # Writes before turning the bus around for reads
system.mem_ctrls1.wrPerTurnAround::total        17081                       # Writes before turning the bus around for reads
system.mem_ctrls1.totQLat                 30993937507                       # Total ticks spent queuing
system.mem_ctrls1.totMemAccLat            34629525007                       # Total ticks spent from burst creation until serviced by the DRAM
system.mem_ctrls1.totBusLat                 969490000                       # Total ticks spent in databus transfers
system.mem_ctrls1.avgQLat                   159846.61                       # Average queueing delay per DRAM burst
system.mem_ctrls1.avgBusLat                   5000.00                       # Average bus latency per DRAM burst
system.mem_ctrls1.avgMemAccLat              178596.61                       # Average memory access latency per DRAM burst
system.mem_ctrls1.avgRdBW                      218.73                       # Average DRAM read bandwidth in MiByte/s
system.mem_ctrls1.avgWrBW                      137.96                       # Average achieved write bandwidth in MiByte/s
system.mem_ctrls1.avgRdBWSys                   218.77                       # Average system read bandwidth in MiByte/s
system.mem_ctrls1.avgWrBWSys                   137.96                       # Average system write bandwidth in MiByte/s
system.mem_ctrls1.peakBW                     12800.00                       # Theoretical peak bandwidth in MiByte/s
system.mem_ctrls1.busUtil                        2.79                       # Data bus utilization in percentage
system.mem_ctrls1.busUtilRead                    1.71                       # Data bus utilization in percentage for reads
system.mem_ctrls1.busUtilWrite                   1.08                       # Data bus utilization in percentage for writes
system.mem_ctrls1.avgRdQLen                      1.58                       # Average read queue length when enqueuing
system.mem_ctrls1.avgWrQLen                      2.97                       # Average write queue length when enqueuing
system.mem_ctrls1.readRowHits                  154132                       # Number of row buffer hits during reads
system.mem_ctrls1.writeRowHits                  86321                       # Number of row buffer hits during writes
system.mem_ctrls1.readRowHitRate                79.49                       # Row buffer hit rate for reads
system.mem_ctrls1.writeRowHitRate               70.59                       # Row buffer hit rate for writes
system.mem_ctrls1.avgGap                    179407.51                       # Average gap between requests
system.mem_ctrls1.pageHitRate                   76.05                       # Row buffer hit rate, read and write combined
system.mem_ctrls1.memoryStateTime::IDLE   11892921250                       # Time in different power states
system.mem_ctrls1.memoryStateTime::REF     1894360000                       # Time in different power states
system.mem_ctrls1.memoryStateTime::PRE_PDN            0                       # Time in different power states
system.mem_ctrls1.memoryStateTime::ACT    42943610000                       # Time in different power states
system.mem_ctrls1.memoryStateTime::ACT_PDN            0                       # Time in different power states
system.mem_ctrls1.actEnergy::0              289464840                       # Energy for activate commands per rank (pJ)
system.mem_ctrls1.actEnergy::1              283016160                       # Energy for activate commands per rank (pJ)
system.mem_ctrls1.preEnergy::0              157942125                       # Energy for precharge commands per rank (pJ)
system.mem_ctrls1.preEnergy::1              154423500                       # Energy for precharge commands per rank (pJ)
system.mem_ctrls1.readEnergy::0             754977600                       # Energy for read commands per rank (pJ)
system.mem_ctrls1.readEnergy::1             757317600                       # Energy for read commands per rank (pJ)
system.mem_ctrls1.writeEnergy::0            396323280                       # Energy for write commands per rank (pJ)
system.mem_ctrls1.writeEnergy::1            396096480                       # Energy for write commands per rank (pJ)
system.mem_ctrls1.refreshEnergy::0         3705368160                       # Energy for refresh commands per rank (pJ)
system.mem_ctrls1.refreshEnergy::1         3705368160                       # Energy for refresh commands per rank (pJ)
system.mem_ctrls1.actBackEnergy::0        22087033740                       # Energy for active background per rank (pJ)
system.mem_ctrls1.actBackEnergy::1        21530785275                       # Energy for active background per rank (pJ)
system.mem_ctrls1.preBackEnergy::0        14663935500                       # Energy for precharge background per rank (pJ)
system.mem_ctrls1.preBackEnergy::1        15151872750                       # Energy for precharge background per rank (pJ)
system.mem_ctrls1.totalEnergy::0          42055045245                       # Total energy per rank (pJ)
system.mem_ctrls1.totalEnergy::1          41978879925                       # Total energy per rank (pJ)
system.mem_ctrls1.averagePower::0          741.307857                       # Core power per rank (mW)
system.mem_ctrls1.averagePower::1          739.965285                       # Core power per rank (mW)
system.mem_ctrls2.bytes_read::ruby.dir_cntrl2     12411008                       # Number of bytes read from this memory
system.mem_ctrls2.bytes_read::total          12411008                       # Number of bytes read from this memory
system.mem_ctrls2.bytes_written::ruby.dir_cntrl2      7827392                       # Number of bytes written to this memory
system.mem_ctrls2.bytes_written::total        7827392                       # Number of bytes written to this memory
system.mem_ctrls2.num_reads::ruby.dir_cntrl2       193922                       # Number of read requests responded to by this memory
system.mem_ctrls2.num_reads::total             193922                       # Number of read requests responded to by this memory
system.mem_ctrls2.num_writes::ruby.dir_cntrl2       122303                       # Number of write requests responded to by this memory
system.mem_ctrls2.num_writes::total            122303                       # Number of write requests responded to by this memory
system.mem_ctrls2.bw_read::ruby.dir_cntrl2    218760806                       # Total read bandwidth from this memory (bytes/s)
system.mem_ctrls2.bw_read::total            218760806                       # Total read bandwidth from this memory (bytes/s)
system.mem_ctrls2.bw_write::ruby.dir_cntrl2    137968373                       # Write bandwidth from this memory (bytes/s)
system.mem_ctrls2.bw_write::total           137968373                       # Write bandwidth from this memory (bytes/s)
system.mem_ctrls2.bw_total::ruby.dir_cntrl2    356729179                       # Total bandwidth to/from this memory (bytes/s)
system.mem_ctrls2.bw_total::total           356729179                       # Total bandwidth to/from this memory (bytes/s)
system.mem_ctrls2.readReqs                     193922                       # Number of read requests accepted
system.mem_ctrls2.writeReqs                    122303                       # Number of write requests accepted
system.mem_ctrls2.readBursts                   193922                       # Number of DRAM read bursts, including those serviced by the write queue
system.mem_ctrls2.writeBursts                  122303                       # Number of DRAM write bursts, including those merged in the write queue
system.mem_ctrls2.bytesReadDRAM              12409216                       # Total number of bytes read from DRAM
system.mem_ctrls2.bytesReadWrQ                   1792                       # Total number of bytes read from write queue
system.mem_ctrls2.bytesWritten                7827328                       # Total number of bytes written to DRAM
system.mem_ctrls2.bytesReadSys               12411008                       # Total read bytes from the system interface side
system.mem_ctrls2.bytesWrittenSys             7827392                       # Total written bytes from the system interface side
system.mem_ctrls2.servicedByWrQ                    28                       # Number of DRAM read bursts serviced by the write queue
system.mem_ctrls2.mergedWrBursts                    0                       # Number of DRAM write bursts merged with an existing one
system.mem_ctrls2.neitherReadNorWriteReqs            0                       # Number of requests that are neither read nor write
system.mem_ctrls2.perBankRdBursts::0            11877                       # Per bank write bursts
system.mem_ctrls2.perBankRdBursts::1            12013                       # Per bank write bursts
system.mem_ctrls2.perBankRdBursts::2            11873                       # Per bank write bursts
system.mem_ctrls2.perBankRdBursts::3            12228                       # Per bank write bursts
system.mem_ctrls2.perBankRdBursts::4            12013                       # Per bank write bursts
system.mem_ctrls2.perBankRdBursts::5            12084                       # Per bank write bursts
system.mem_ctrls2.perBankRdBursts::6            12292                       # Per bank write bursts
system.mem_ctrls2.perBankRdBursts::7            12449                       # Per bank write bursts
system.mem_ctrls2.perBankRdBursts::8            12204                       # Per bank write bursts
system.mem_ctrls2.perBankRdBursts::9            12542                       # Per bank write bursts
system.mem_ctrls2.perBankRdBursts::10           12204                       # Per bank write bursts
system.mem_ctrls2.perBankRdBursts::11           12595                       # Per bank write bursts
system.mem_ctrls2.perBankRdBursts::12           12051                       # Per bank write bursts
system.mem_ctrls2.perBankRdBursts::13           11773                       # Per bank write bursts
system.mem_ctrls2.perBankRdBursts::14           11982                       # Per bank write bursts
system.mem_ctrls2.perBankRdBursts::15           11714                       # Per bank write bursts
system.mem_ctrls2.perBankWrBursts::0             7583                       # Per bank write bursts
system.mem_ctrls2.perBankWrBursts::1             7465                       # Per bank write bursts
system.mem_ctrls2.perBankWrBursts::2             7592                       # Per bank write bursts
system.mem_ctrls2.perBankWrBursts::3             7641                       # Per bank write bursts
system.mem_ctrls2.perBankWrBursts::4             7599                       # Per bank write bursts
system.mem_ctrls2.perBankWrBursts::5             7673                       # Per bank write bursts
system.mem_ctrls2.perBankWrBursts::6             7781                       # Per bank write bursts
system.mem_ctrls2.perBankWrBursts::7             7819                       # Per bank write bursts
system.mem_ctrls2.perBankWrBursts::8             7711                       # Per bank write bursts
system.mem_ctrls2.perBankWrBursts::9             7862                       # Per bank write bursts
system.mem_ctrls2.perBankWrBursts::10            7662                       # Per bank write bursts
system.mem_ctrls2.perBankWrBursts::11            7713                       # Per bank write bursts
system.mem_ctrls2.perBankWrBursts::12            7560                       # Per bank write bursts
system.mem_ctrls2.perBankWrBursts::13            7593                       # Per bank write bursts
system.mem_ctrls2.perBankWrBursts::14            7617                       # Per bank write bursts
system.mem_ctrls2.perBankWrBursts::15            7431                       # Per bank write bursts
system.mem_ctrls2.numRdRetry                    62522                       # Number of times read queue was full causing retry
system.mem_ctrls2.numWrRetry                     6494                       # Number of times write queue was full causing retry
system.mem_ctrls2.totGap                  56733161500                       # Total gap between requests
system.mem_ctrls2.readPktSize::0                    0                       # Read request sizes (log2)
system.mem_ctrls2.readPktSize::1                    0                       # Read request sizes (log2)
system.mem_ctrls2.readPktSize::2                    0                       # Read request sizes (log2)
system.mem_ctrls2.readPktSize::3                    0                       # Read request sizes (log2)
system.mem_ctrls2.readPktSize::4                    0                       # Read request sizes (log2)
system.mem_ctrls2.readPktSize::5                    0                       # Read request sizes (log2)
system.mem_ctrls2.readPktSize::6               193922                       # Read request sizes (log2)
system.mem_ctrls2.writePktSize::0                   0                       # Write request sizes (log2)
system.mem_ctrls2.writePktSize::1                   0                       # Write request sizes (log2)
system.mem_ctrls2.writePktSize::2                   0                       # Write request sizes (log2)
system.mem_ctrls2.writePktSize::3                   0                       # Write request sizes (log2)
system.mem_ctrls2.writePktSize::4                   0                       # Write request sizes (log2)
system.mem_ctrls2.writePktSize::5                   0                       # Write request sizes (log2)
system.mem_ctrls2.writePktSize::6              122303                       # Write request sizes (log2)
system.mem_ctrls2.rdQLenPdf::0                  67772                       # What read queue length does an incoming req see
system.mem_ctrls2.rdQLenPdf::1                   1568                       # What read queue length does an incoming req see
system.mem_ctrls2.rdQLenPdf::2                   1420                       # What read queue length does an incoming req see
system.mem_ctrls2.rdQLenPdf::3                   1450                       # What read queue length does an incoming req see
system.mem_ctrls2.rdQLenPdf::4                   1568                       # What read queue length does an incoming req see
system.mem_ctrls2.rdQLenPdf::5                   1560                       # What read queue length does an incoming req see
system.mem_ctrls2.rdQLenPdf::6                   1708                       # What read queue length does an incoming req see
system.mem_ctrls2.rdQLenPdf::7                   1822                       # What read queue length does an incoming req see
system.mem_ctrls2.rdQLenPdf::8                   1856                       # What read queue length does an incoming req see
system.mem_ctrls2.rdQLenPdf::9                   1949                       # What read queue length does an incoming req see
system.mem_ctrls2.rdQLenPdf::10                  1921                       # What read queue length does an incoming req see
system.mem_ctrls2.rdQLenPdf::11                  1960                       # What read queue length does an incoming req see
system.mem_ctrls2.rdQLenPdf::12                  1918                       # What read queue length does an incoming req see
system.mem_ctrls2.rdQLenPdf::13                  1992                       # What read queue length does an incoming req see
system.mem_ctrls2.rdQLenPdf::14                  1940                       # What read queue length does an incoming req see
system.mem_ctrls2.rdQLenPdf::15                  1930                       # What read queue length does an incoming req see
system.mem_ctrls2.rdQLenPdf::16                  1989                       # What read queue length does an incoming req see
system.mem_ctrls2.rdQLenPdf::17                  1814                       # What read queue length does an incoming req see
system.mem_ctrls2.rdQLenPdf::18                  1914                       # What read queue length does an incoming req see
system.mem_ctrls2.rdQLenPdf::19                  2006                       # What read queue length does an incoming req see
system.mem_ctrls2.rdQLenPdf::20                  2034                       # What read queue length does an incoming req see
system.mem_ctrls2.rdQLenPdf::21                  1981                       # What read queue length does an incoming req see
system.mem_ctrls2.rdQLenPdf::22                  2092                       # What read queue length does an incoming req see
system.mem_ctrls2.rdQLenPdf::23                  2141                       # What read queue length does an incoming req see
system.mem_ctrls2.rdQLenPdf::24                  2147                       # What read queue length does an incoming req see
system.mem_ctrls2.rdQLenPdf::25                  2197                       # What read queue length does an incoming req see
system.mem_ctrls2.rdQLenPdf::26                  2313                       # What read queue length does an incoming req see
system.mem_ctrls2.rdQLenPdf::27                  2461                       # What read queue length does an incoming req see
system.mem_ctrls2.rdQLenPdf::28                  2631                       # What read queue length does an incoming req see
system.mem_ctrls2.rdQLenPdf::29                  2625                       # What read queue length does an incoming req see
system.mem_ctrls2.rdQLenPdf::30                  2885                       # What read queue length does an incoming req see
system.mem_ctrls2.rdQLenPdf::31                 66330                       # What read queue length does an incoming req see
system.mem_ctrls2.wrQLenPdf::0                  16330                       # What write queue length does an incoming req see
system.mem_ctrls2.wrQLenPdf::1                  17876                       # What write queue length does an incoming req see
system.mem_ctrls2.wrQLenPdf::2                  18618                       # What write queue length does an incoming req see
system.mem_ctrls2.wrQLenPdf::3                  19218                       # What write queue length does an incoming req see
system.mem_ctrls2.wrQLenPdf::4                  19598                       # What write queue length does an incoming req see
system.mem_ctrls2.wrQLenPdf::5                   8105                       # What write queue length does an incoming req see
system.mem_ctrls2.wrQLenPdf::6                   9197                       # What write queue length does an incoming req see
system.mem_ctrls2.wrQLenPdf::7                  13361                       # What write queue length does an incoming req see
system.mem_ctrls2.bytesPerActivate::samples        75513                       # Bytes accessed per row activation
system.mem_ctrls2.bytesPerActivate::mean   267.981619                       # Bytes accessed per row activation
system.mem_ctrls2.bytesPerActivate::gmean   195.524107                       # Bytes accessed per row activation
system.mem_ctrls2.bytesPerActivate::stdev   223.347452                       # Bytes accessed per row activation
system.mem_ctrls2.bytesPerActivate::0-127        18584     24.61%     24.61% # Bytes accessed per row activation
system.mem_ctrls2.bytesPerActivate::128-255        19726     26.12%     50.73% # Bytes accessed per row activation
system.mem_ctrls2.bytesPerActivate::256-383        22135     29.31%     80.05% # Bytes accessed per row activation
system.mem_ctrls2.bytesPerActivate::384-511         5178      6.86%     86.90% # Bytes accessed per row activation
system.mem_ctrls2.bytesPerActivate::512-639         3720      4.93%     91.83% # Bytes accessed per row activation
system.mem_ctrls2.bytesPerActivate::640-767         1833      2.43%     94.26% # Bytes accessed per row activation
system.mem_ctrls2.bytesPerActivate::768-895         1211      1.60%     95.86% # Bytes accessed per row activation
system.mem_ctrls2.bytesPerActivate::896-1023          796      1.05%     96.91% # Bytes accessed per row activation
system.mem_ctrls2.bytesPerActivate::1024-1151         2330      3.09%    100.00% # Bytes accessed per row activation
system.mem_ctrls2.bytesPerActivate::total        75513                       # Bytes accessed per row activation
system.mem_ctrls2.rdPerTurnAround::samples        17080                       # Reads before turning the bus around for writes
system.mem_ctrls2.rdPerTurnAround::mean     11.351874                       # Reads before turning the bus around for writes
system.mem_ctrls2.rdPerTurnAround::stdev    26.596394                       # Reads before turning the bus around for writes
system.mem_ctrls2.rdPerTurnAround::0-127        17072     99.95%     99.95% # Reads before turning the bus around for writes
system.mem_ctrls2.rdPerTurnAround::128-255            6      0.04%     99.99% # Reads before turning the bus around for writes
system.mem_ctrls2.rdPerTurnAround::1152-1279            1      0.01%     99.99% # Reads before turning the bus around for writes
system.mem_ctrls2.rdPerTurnAround::2816-2943            1      0.01%    100.00% # Reads before turning the bus around for writes
system.mem_ctrls2.rdPerTurnAround::total        17080                       # Reads before turning the bus around for writes
system.mem_ctrls2.wrPerTurnAround::samples        17080                       # Writes before turning the bus around for reads
system.mem_ctrls2.wrPerTurnAround::mean      7.160539                       # Writes before turning the bus around for reads
system.mem_ctrls2.wrPerTurnAround::gmean     6.495867                       # Writes before turning the bus around for reads
system.mem_ctrls2.wrPerTurnAround::stdev     3.601284                       # Writes before turning the bus around for reads
system.mem_ctrls2.wrPerTurnAround::4-7          12127     71.00%     71.00% # Writes before turning the bus around for reads
system.mem_ctrls2.wrPerTurnAround::8-11          2178     12.75%     83.75% # Writes before turning the bus around for reads
system.mem_ctrls2.wrPerTurnAround::12-15         1665      9.75%     93.50% # Writes before turning the bus around for reads
system.mem_ctrls2.wrPerTurnAround::16-19         1110      6.50%    100.00% # Writes before turning the bus around for reads
system.mem_ctrls2.wrPerTurnAround::total        17080                       # Writes before turning the bus around for reads
system.mem_ctrls2.totQLat                 31013044534                       # Total ticks spent queuing
system.mem_ctrls2.totMemAccLat            34648557034                       # Total ticks spent from burst creation until serviced by the DRAM
system.mem_ctrls2.totBusLat                 969470000                       # Total ticks spent in databus transfers
system.mem_ctrls2.avgQLat                   159948.45                       # Average queueing delay per DRAM burst
system.mem_ctrls2.avgBusLat                   5000.00                       # Average bus latency per DRAM burst
system.mem_ctrls2.avgMemAccLat              178698.45                       # Average memory access latency per DRAM burst
system.mem_ctrls2.avgRdBW                      218.73                       # Average DRAM read bandwidth in MiByte/s
system.mem_ctrls2.avgWrBW                      137.97                       # Average achieved write bandwidth in MiByte/s
system.mem_ctrls2.avgRdBWSys                   218.76                       # Average system read bandwidth in MiByte/s
system.mem_ctrls2.avgWrBWSys                   137.97                       # Average system write bandwidth in MiByte/s
system.mem_ctrls2.peakBW                     12800.00                       # Theoretical peak bandwidth in MiByte/s
system.mem_ctrls2.busUtil                        2.79                       # Data bus utilization in percentage
system.mem_ctrls2.busUtilRead                    1.71                       # Data bus utilization in percentage for reads
system.mem_ctrls2.busUtilWrite                   1.08                       # Data bus utilization in percentage for writes
system.mem_ctrls2.avgRdQLen                      1.57                       # Average read queue length when enqueuing
system.mem_ctrls2.avgWrQLen                      2.93                       # Average write queue length when enqueuing
system.mem_ctrls2.readRowHits                  154193                       # Number of row buffer hits during reads
system.mem_ctrls2.writeRowHits                  86483                       # Number of row buffer hits during writes
system.mem_ctrls2.readRowHitRate                79.52                       # Row buffer hit rate for reads
system.mem_ctrls2.writeRowHitRate               70.71                       # Row buffer hit rate for writes
system.mem_ctrls2.avgGap                    179407.58                       # Average gap between requests
system.mem_ctrls2.pageHitRate                   76.12                       # Row buffer hit rate, read and write combined
system.mem_ctrls2.memoryStateTime::IDLE   11875556500                       # Time in different power states
system.mem_ctrls2.memoryStateTime::REF     1894360000                       # Time in different power states
system.mem_ctrls2.memoryStateTime::PRE_PDN            0                       # Time in different power states
system.mem_ctrls2.memoryStateTime::ACT    42961021000                       # Time in different power states
system.mem_ctrls2.memoryStateTime::ACT_PDN            0                       # Time in different power states
system.mem_ctrls2.actEnergy::0              287990640                       # Energy for activate commands per rank (pJ)
system.mem_ctrls2.actEnergy::1              282834720                       # Energy for activate commands per rank (pJ)
system.mem_ctrls2.preEnergy::0              157137750                       # Energy for precharge commands per rank (pJ)
system.mem_ctrls2.preEnergy::1              154324500                       # Energy for precharge commands per rank (pJ)
system.mem_ctrls2.readEnergy::0             755227200                       # Energy for read commands per rank (pJ)
system.mem_ctrls2.readEnergy::1             757052400                       # Energy for read commands per rank (pJ)
system.mem_ctrls2.writeEnergy::0            396245520                       # Energy for write commands per rank (pJ)
system.mem_ctrls2.writeEnergy::1            396239040                       # Energy for write commands per rank (pJ)
system.mem_ctrls2.refreshEnergy::0         3705368160                       # Energy for refresh commands per rank (pJ)
system.mem_ctrls2.refreshEnergy::1         3705368160                       # Energy for refresh commands per rank (pJ)
system.mem_ctrls2.actBackEnergy::0        21839232510                       # Energy for active background per rank (pJ)
system.mem_ctrls2.actBackEnergy::1        21337465500                       # Energy for active background per rank (pJ)
system.mem_ctrls2.preBackEnergy::0        14881332750                       # Energy for precharge background per rank (pJ)
system.mem_ctrls2.preBackEnergy::1        15321479250                       # Energy for precharge background per rank (pJ)
system.mem_ctrls2.totalEnergy::0          42022534530                       # Total energy per rank (pJ)
system.mem_ctrls2.totalEnergy::1          41954763570                       # Total energy per rank (pJ)
system.mem_ctrls2.averagePower::0          740.734184                       # Core power per rank (mW)
system.mem_ctrls2.averagePower::1          739.539581                       # Core power per rank (mW)
system.mem_ctrls3.bytes_read::ruby.dir_cntrl3     12391360                       # Number of bytes read from this memory
system.mem_ctrls3.bytes_read::total          12391360                       # Number of bytes read from this memory
system.mem_ctrls3.bytes_written::ruby.dir_cntrl3      7825472                       # Number of bytes written to this memory
system.mem_ctrls3.bytes_written::total        7825472                       # Number of bytes written to this memory
system.mem_ctrls3.num_reads::ruby.dir_cntrl3       193615                       # Number of read requests responded to by this memory
system.mem_ctrls3.num_reads::total             193615                       # Number of read requests responded to by this memory
system.mem_ctrls3.num_writes::ruby.dir_cntrl3       122273                       # Number of write requests responded to by this memory
system.mem_ctrls3.num_writes::total            122273                       # Number of write requests responded to by this memory
system.mem_ctrls3.bw_read::ruby.dir_cntrl3    218414483                       # Total read bandwidth from this memory (bytes/s)
system.mem_ctrls3.bw_read::total            218414483                       # Total read bandwidth from this memory (bytes/s)
system.mem_ctrls3.bw_write::ruby.dir_cntrl3    137934531                       # Write bandwidth from this memory (bytes/s)
system.mem_ctrls3.bw_write::total           137934531                       # Write bandwidth from this memory (bytes/s)
system.mem_ctrls3.bw_total::ruby.dir_cntrl3    356349014                       # Total bandwidth to/from this memory (bytes/s)
system.mem_ctrls3.bw_total::total           356349014                       # Total bandwidth to/from this memory (bytes/s)
system.mem_ctrls3.readReqs                     193615                       # Number of read requests accepted
system.mem_ctrls3.writeReqs                    122273                       # Number of write requests accepted
system.mem_ctrls3.readBursts                   193615                       # Number of DRAM read bursts, including those serviced by the write queue
system.mem_ctrls3.writeBursts                  122273                       # Number of DRAM write bursts, including those merged in the write queue
system.mem_ctrls3.bytesReadDRAM              12390144                       # Total number of bytes read from DRAM
system.mem_ctrls3.bytesReadWrQ                   1216                       # Total number of bytes read from write queue
system.mem_ctrls3.bytesWritten                7825408                       # Total number of bytes written to DRAM
system.mem_ctrls3.bytesReadSys               12391360                       # Total read bytes from the system interface side
system.mem_ctrls3.bytesWrittenSys             7825472                       # Total written bytes from the system interface side
system.mem_ctrls3.servicedByWrQ                    19                       # Number of DRAM read bursts serviced by the write queue
system.mem_ctrls3.mergedWrBursts                    0                       # Number of DRAM write bursts merged with an existing one
system.mem_ctrls3.neitherReadNorWriteReqs            0                       # Number of requests that are neither read nor write
system.mem_ctrls3.perBankRdBursts::0            11867                       # Per bank write bursts
system.mem_ctrls3.perBankRdBursts::1            11968                       # Per bank write bursts
system.mem_ctrls3.perBankRdBursts::2            11815                       # Per bank write bursts
system.mem_ctrls3.perBankRdBursts::3            12186                       # Per bank write bursts
system.mem_ctrls3.perBankRdBursts::4            11962                       # Per bank write bursts
system.mem_ctrls3.perBankRdBursts::5            12061                       # Per bank write bursts
system.mem_ctrls3.perBankRdBursts::6            12279                       # Per bank write bursts
system.mem_ctrls3.perBankRdBursts::7            12440                       # Per bank write bursts
system.mem_ctrls3.perBankRdBursts::8            12206                       # Per bank write bursts
system.mem_ctrls3.perBankRdBursts::9            12536                       # Per bank write bursts
system.mem_ctrls3.perBankRdBursts::10           12228                       # Per bank write bursts
system.mem_ctrls3.perBankRdBursts::11           12526                       # Per bank write bursts
system.mem_ctrls3.perBankRdBursts::12           12041                       # Per bank write bursts
system.mem_ctrls3.perBankRdBursts::13           11770                       # Per bank write bursts
system.mem_ctrls3.perBankRdBursts::14           12006                       # Per bank write bursts
system.mem_ctrls3.perBankRdBursts::15           11705                       # Per bank write bursts
system.mem_ctrls3.perBankWrBursts::0             7589                       # Per bank write bursts
system.mem_ctrls3.perBankWrBursts::1             7453                       # Per bank write bursts
system.mem_ctrls3.perBankWrBursts::2             7590                       # Per bank write bursts
system.mem_ctrls3.perBankWrBursts::3             7628                       # Per bank write bursts
system.mem_ctrls3.perBankWrBursts::4             7595                       # Per bank write bursts
system.mem_ctrls3.perBankWrBursts::5             7672                       # Per bank write bursts
system.mem_ctrls3.perBankWrBursts::6             7782                       # Per bank write bursts
system.mem_ctrls3.perBankWrBursts::7             7811                       # Per bank write bursts
system.mem_ctrls3.perBankWrBursts::8             7711                       # Per bank write bursts
system.mem_ctrls3.perBankWrBursts::9             7862                       # Per bank write bursts
system.mem_ctrls3.perBankWrBursts::10            7666                       # Per bank write bursts
system.mem_ctrls3.perBankWrBursts::11            7722                       # Per bank write bursts
system.mem_ctrls3.perBankWrBursts::12            7557                       # Per bank write bursts
system.mem_ctrls3.perBankWrBursts::13            7600                       # Per bank write bursts
system.mem_ctrls3.perBankWrBursts::14            7611                       # Per bank write bursts
system.mem_ctrls3.perBankWrBursts::15            7423                       # Per bank write bursts
system.mem_ctrls3.numRdRetry                    57207                       # Number of times read queue was full causing retry
system.mem_ctrls3.numWrRetry                     6176                       # Number of times write queue was full causing retry
system.mem_ctrls3.totGap                  56732173000                       # Total gap between requests
system.mem_ctrls3.readPktSize::0                    0                       # Read request sizes (log2)
system.mem_ctrls3.readPktSize::1                    0                       # Read request sizes (log2)
system.mem_ctrls3.readPktSize::2                    0                       # Read request sizes (log2)
system.mem_ctrls3.readPktSize::3                    0                       # Read request sizes (log2)
system.mem_ctrls3.readPktSize::4                    0                       # Read request sizes (log2)
system.mem_ctrls3.readPktSize::5                    0                       # Read request sizes (log2)
system.mem_ctrls3.readPktSize::6               193615                       # Read request sizes (log2)
system.mem_ctrls3.writePktSize::0                   0                       # Write request sizes (log2)
system.mem_ctrls3.writePktSize::1                   0                       # Write request sizes (log2)
system.mem_ctrls3.writePktSize::2                   0                       # Write request sizes (log2)
system.mem_ctrls3.writePktSize::3                   0                       # Write request sizes (log2)
system.mem_ctrls3.writePktSize::4                   0                       # Write request sizes (log2)
system.mem_ctrls3.writePktSize::5                   0                       # Write request sizes (log2)
system.mem_ctrls3.writePktSize::6              122273                       # Write request sizes (log2)
system.mem_ctrls3.rdQLenPdf::0                  67443                       # What read queue length does an incoming req see
system.mem_ctrls3.rdQLenPdf::1                   1687                       # What read queue length does an incoming req see
system.mem_ctrls3.rdQLenPdf::2                   1458                       # What read queue length does an incoming req see
system.mem_ctrls3.rdQLenPdf::3                   1544                       # What read queue length does an incoming req see
system.mem_ctrls3.rdQLenPdf::4                   1632                       # What read queue length does an incoming req see
system.mem_ctrls3.rdQLenPdf::5                   1811                       # What read queue length does an incoming req see
system.mem_ctrls3.rdQLenPdf::6                   1904                       # What read queue length does an incoming req see
system.mem_ctrls3.rdQLenPdf::7                   1976                       # What read queue length does an incoming req see
system.mem_ctrls3.rdQLenPdf::8                   2006                       # What read queue length does an incoming req see
system.mem_ctrls3.rdQLenPdf::9                   2026                       # What read queue length does an incoming req see
system.mem_ctrls3.rdQLenPdf::10                  2089                       # What read queue length does an incoming req see
system.mem_ctrls3.rdQLenPdf::11                  2268                       # What read queue length does an incoming req see
system.mem_ctrls3.rdQLenPdf::12                  2197                       # What read queue length does an incoming req see
system.mem_ctrls3.rdQLenPdf::13                  2196                       # What read queue length does an incoming req see
system.mem_ctrls3.rdQLenPdf::14                  2210                       # What read queue length does an incoming req see
system.mem_ctrls3.rdQLenPdf::15                  2311                       # What read queue length does an incoming req see
system.mem_ctrls3.rdQLenPdf::16                  2272                       # What read queue length does an incoming req see
system.mem_ctrls3.rdQLenPdf::17                  2230                       # What read queue length does an incoming req see
system.mem_ctrls3.rdQLenPdf::18                  2284                       # What read queue length does an incoming req see
system.mem_ctrls3.rdQLenPdf::19                  2224                       # What read queue length does an incoming req see
system.mem_ctrls3.rdQLenPdf::20                  2276                       # What read queue length does an incoming req see
system.mem_ctrls3.rdQLenPdf::21                  2340                       # What read queue length does an incoming req see
system.mem_ctrls3.rdQLenPdf::22                  2315                       # What read queue length does an incoming req see
system.mem_ctrls3.rdQLenPdf::23                  2277                       # What read queue length does an incoming req see
system.mem_ctrls3.rdQLenPdf::24                  2315                       # What read queue length does an incoming req see
[...]
system.ruby.L2Cache_Controller.ISS.L1_GETS::total            4                      
system.ruby.L2Cache_Controller.ISS.Mem_Data |       12407      4.30%      4.30% |        8981      3.11%      7.41% |        8999      3.12%     10.53% |        8940      3.10%     13.62% |        8913      3.09%     16.71% |        8900      3.08%     19.79% |        8906      3.08%     22.88% |        8915      3.09%     25.97% |        8925      3.09%     29.06% |        8960      3.10%     32.16% |        8979      3.11%     35.27% |        8906      3.08%     38.36% |        8917      3.09%     41.44% |        8912      3.09%     44.53% |        8928      3.09%     47.62% |        8872      3.07%     50.70% |        8913      3.09%     53.78% |        8888      3.08%     56.86% |        8891      3.08%     59.94% |        8890      3.08%     63.02% |        8902      3.08%     66.11% |        8913      3.09%     69.19% |        8917      3.09%     72.28% |        8884      3.08%     75.36% |        8897      3.08%     78.44% |        8924      3.09%     81.53% |        8891      3.08%     84.61% |        8875      3.07%     87.69% |        8905      3.08%     90.77% |        8894      3.08%     93.85% |        8859      3.07%     96.92% |        8894      3.08%    100.00%
system.ruby.L2Cache_Controller.ISS.Mem_Data::total       288697                      
system.ruby.L2Cache_Controller.IS.Mem_Data |         449      3.32%      3.32% |         421      3.12%      6.44% |         415      3.07%      9.51% |         404      2.99%     12.50% |         411      3.04%     15.55% |         401      2.97%     18.51% |         414      3.06%     21.58% |         417      3.09%     24.67% |         407      3.01%     27.68% |         416      3.08%     30.76% |         443      3.28%     34.04% |         438      3.24%     37.28% |         452      3.35%     40.63% |         429      3.18%     43.80% |         448      3.32%     47.12% |         440      3.26%     50.38% |         450      3.33%     53.71% |         440      3.26%     56.97% |         434      3.21%     60.18% |         406      3.01%     63.18% |         386      2.86%     66.04% |         408      3.02%     69.06% |         404      2.99%     72.05% |         395      2.92%     74.98% |         427      3.16%     78.14% |         447      3.31%     81.45% |         436      3.23%     84.68% |         401      2.97%     87.64% |         415      3.07%     90.72% |         427      3.16%     93.88% |         426      3.15%     97.03% |         401      2.97%    100.00%
system.ruby.L2Cache_Controller.IS.Mem_Data::total        13508                      
system.ruby.L2Cache_Controller.IM.L1_GETX |           2    100.00%    100.00% |           0      0.00%    100.00% |           0      0.00%    100.00% |           0      0.00%    100.00% |           0      0.00%    100.00% |           0      0.00%    100.00% |           0      0.00%    100.00% |           0      0.00%    100.00% |           0      0.00%    100.00% |           0      0.00%    100.00% |           0      0.00%    100.00% |           0      0.00%    100.00% |           0      0.00%    100.00% |           0      0.00%    100.00% |           0      0.00%    100.00% |           0      0.00%    100.00% |           0      0.00%    100.00% |           0      0.00%    100.00% |           0      0.00%    100.00% |           0      0.00%    100.00% |           0      0.00%    100.00% |           0      0.00%    100.00% |           0      0.00%    100.00% |           0      0.00%    100.00% |           0      0.00%    100.00% |           0      0.00%    100.00% |           0      0.00%    100.00% |           0      0.00%    100.00% |           0      0.00%    100.00% |           0      0.00%    100.00% |           0      0.00%    100.00% |           0      0.00%    100.00%
system.ruby.L2Cache_Controller.IM.L1_GETX::total            2                      
system.ruby.L2Cache_Controller.IM.Mem_Data |       14974      3.14%      3.14% |       14885      3.12%      6.26% |       14890      3.12%      9.39% |       14891      3.12%     12.51% |       14883      3.12%     15.63% |       14891      3.12%     18.76% |       14894      3.12%     21.88% |       14887      3.12%     25.00% |       14895      3.12%     28.13% |       14899      3.13%     31.25% |       14880      3.12%     34.38% |       14902      3.13%     37.50% |       14892      3.12%     40.63% |       14893      3.12%     43.75% |       14888      3.12%     46.87% |       14883      3.12%     49.99% |       14920      3.13%     53.12% |       14895      3.12%     56.25% |       14896      3.12%     59.37% |       14901      3.13%     62.50% |       14914      3.13%     65.63% |       14921      3.13%     68.76% |       14886      3.12%     71.88% |       14898      3.13%     75.01% |       14908      3.13%     78.13% |       14899      3.13%     81.26% |       14902      3.13%     84.38% |       14893      3.12%     87.51% |       14887      3.12%     90.63% |       14883      3.12%     93.75% |       14895      3.12%     96.88% |       14882      3.12%    100.00%
system.ruby.L2Cache_Controller.IM.Mem_Data::total       476707                      
system.ruby.L2Cache_Controller.SS_MB.Exclusive_Unblock |           3      6.12%      6.12% |           6     12.24%     18.37% |           2      4.08%     22.45% |           3      6.12%     28.57% |           0      0.00%     28.57% |           0      0.00%     28.57% |           0      0.00%     28.57% |           0      0.00%     28.57% |           1      2.04%     30.61% |           0      0.00%     30.61% |           0      0.00%     30.61% |           1      2.04%     32.65% |           4      8.16%     40.82% |           0      0.00%     40.82% |           2      4.08%     44.90% |           0      0.00%     44.90% |           1      2.04%     46.94% |           2      4.08%     51.02% |          13     26.53%     77.55% |           3      6.12%     83.67% |           0      0.00%     83.67% |           0      0.00%     83.67% |           0      0.00%     83.67% |           0      0.00%     83.67% |           1      2.04%     85.71% |           0      0.00%     85.71% |           3      6.12%     91.84% |           4      8.16%    100.00% |           0      0.00%    100.00% |           0      0.00%    100.00% |           0      0.00%    100.00% |           0      0.00%    100.00%
system.ruby.L2Cache_Controller.SS_MB.Exclusive_Unblock::total           49                      
system.ruby.L2Cache_Controller.MT_MB.Exclusive_Unblock |       75917      7.22%      7.22% |       32861      3.13%     10.35% |       29490      2.81%     13.16% |       32395      3.08%     16.24% |       29792      2.83%     19.07% |       29678      2.82%     21.90% |       29084      2.77%     24.66% |       29697      2.83%     27.49% |       30398      2.89%     30.38% |       29990      2.85%     33.23% |       32541      3.10%     36.33% |       30867      2.94%     39.27% |       30521      2.90%     42.17% |       30305      2.88%     45.06% |       29597      2.82%     47.87% |       30195      2.87%     50.74% |       31507      3.00%     53.74% |       30314      2.88%     56.63% |       30920      2.94%     59.57% |       31636      3.01%     62.58% |       32124      3.06%     65.63% |       37031      3.52%     69.16% |       31242      2.97%     72.13% |       31249      2.97%     75.10% |       31254      2.97%     78.08% |       31241      2.97%     81.05% |       31167      2.97%     84.02% |       30878      2.94%     86.95% |       32697      3.11%     90.06% |       32156      3.06%     93.12% |       34136      3.25%     96.37% |       38134      3.63%    100.00%
system.ruby.L2Cache_Controller.MT_MB.Exclusive_Unblock::total      1051014                      
system.ruby.L2Cache_Controller.MT_IIB.WB_Data |           1      1.23%      1.23% |           2      2.47%      3.70% |           1      1.23%      4.94% |           3      3.70%      8.64% |           3      3.70%     12.35% |           3      3.70%     16.05% |           4      4.94%     20.99% |           3      3.70%     24.69% |           5      6.17%     30.86% |           3      3.70%     34.57% |           2      2.47%     37.04% |           2      2.47%     39.51% |           3      3.70%     43.21% |           3      3.70%     46.91% |           4      4.94%     51.85% |           3      3.70%     55.56% |           3      3.70%     59.26% |           1      1.23%     60.49% |           2      2.47%     62.96% |           0      0.00%     62.96% |           1      1.23%     64.20% |           0      0.00%     64.20% |           1      1.23%     65.43% |           2      2.47%     67.90% |           3      3.70%     71.60% |           5      6.17%     77.78% |           4      4.94%     82.72% |           5      6.17%     88.89% |           3      3.70%     92.59% |           2      2.47%     95.06% |           2      2.47%     97.53% |           2      2.47%    100.00%
system.ruby.L2Cache_Controller.MT_IIB.WB_Data::total           81                      
system.ruby.L2Cache_Controller.MT_IIB.WB_Data_clean |          21     32.81%     32.81% |           0      0.00%     32.81% |           0      0.00%     32.81% |          15     23.44%     56.25% |           0      0.00%     56.25% |           0      0.00%     56.25% |           0      0.00%     56.25% |           0      0.00%     56.25% |           0      0.00%     56.25% |           0      0.00%     56.25% |           0      0.00%     56.25% |           0      0.00%     56.25% |           0      0.00%     56.25% |           0      0.00%     56.25% |           0      0.00%     56.25% |           0      0.00%     56.25% |          11     17.19%     73.44% |           0      0.00%     73.44% |           0      0.00%     73.44% |          15     23.44%     96.88% |           0      0.00%     96.88% |           0      0.00%     96.88% |           0      0.00%     96.88% |           0      0.00%     96.88% |           0      0.00%     96.88% |           0      0.00%     96.88% |           0      0.00%     96.88% |           2      3.12%    100.00% |           0      0.00%    100.00% |           0      0.00%    100.00% |           0      0.00%    100.00% |           0      0.00%    100.00%
system.ruby.L2Cache_Controller.MT_IIB.WB_Data_clean::total           64                      
system.ruby.L2Cache_Controller.MT_IIB.Unblock |           2     66.67%     66.67% |           0      0.00%     66.67% |           0      0.00%     66.67% |           0      0.00%     66.67% |           0      0.00%     66.67% |           0      0.00%     66.67% |           0      0.00%     66.67% |           0      0.00%     66.67% |           0      0.00%     66.67% |           0      0.00%     66.67% |           0      0.00%     66.67% |           0      0.00%     66.67% |           0      0.00%     66.67% |           0      0.00%     66.67% |           0      0.00%     66.67% |           0      0.00%     66.67% |           0      0.00%     66.67% |           0      0.00%     66.67% |           0      0.00%     66.67% |           1     33.33%    100.00% |           0      0.00%    100.00% |           0      0.00%    100.00% |           0      0.00%    100.00% |           0      0.00%    100.00% |           0      0.00%    100.00% |           0      0.00%    100.00% |           0      0.00%    100.00% |           0      0.00%    100.00% |           0      0.00%    100.00% |           0      0.00%    100.00% |           0      0.00%    100.00% |           0      0.00%    100.00%
system.ruby.L2Cache_Controller.MT_IIB.Unblock::total            3                      
system.ruby.L2Cache_Controller.MT_IB.WB_Data_clean |           2     66.67%     66.67% |           0      0.00%     66.67% |           0      0.00%     66.67% |           0      0.00%     66.67% |           0      0.00%     66.67% |           0      0.00%     66.67% |           0      0.00%     66.67% |           0      0.00%     66.67% |           0      0.00%     66.67% |           0      0.00%     66.67% |           0      0.00%     66.67% |           0      0.00%     66.67% |           0      0.00%     66.67% |           0      0.00%     66.67% |           0      0.00%     66.67% |           0      0.00%     66.67% |           0      0.00%     66.67% |           0      0.00%     66.67% |           0      0.00%     66.67% |           1     33.33%    100.00% |           0      0.00%    100.00% |           0      0.00%    100.00% |           0      0.00%    100.00% |           0      0.00%    100.00% |           0      0.00%    100.00% |           0      0.00%    100.00% |           0      0.00%    100.00% |           0      0.00%    100.00% |           0      0.00%    100.00% |           0      0.00%    100.00% |           0      0.00%    100.00% |           0      0.00%    100.00%
system.ruby.L2Cache_Controller.MT_IB.WB_Data_clean::total            3                      
system.ruby.L2Cache_Controller.MT_SB.Unblock |          22     15.17%     15.17% |           2      1.38%     16.55% |           1      0.69%     17.24% |          18     12.41%     29.66% |           3      2.07%     31.72% |           3      2.07%     33.79% |           4      2.76%     36.55% |           3      2.07%     38.62% |           5      3.45%     42.07% |           3      2.07%     44.14% |           2      1.38%     45.52% |           2      1.38%     46.90% |           3      2.07%     48.97% |           3      2.07%     51.03% |           4      2.76%     53.79% |           3      2.07%     55.86% |          14      9.66%     65.52% |           1      0.69%     66.21% |           2      1.38%     67.59% |          15     10.34%     77.93% |           1      0.69%     78.62% |           0      0.00%     78.62% |           1      0.69%     79.31% |           2      1.38%     80.69% |           3      2.07%     82.76% |           5      3.45%     86.21% |           4      2.76%     88.97% |           7      4.83%     93.79% |           3      2.07%     95.86% |           2      1.38%     97.24% |           2      1.38%     98.62% |           2      1.38%    100.00%
system.ruby.L2Cache_Controller.MT_SB.Unblock::total          145                      
system.ruby.SimicsNetworkPortInterface_Controller.MessageSend |       54937     16.70%     16.70% |      164477     50.00%     66.70% |       13614      4.14%     70.84% |       14669      4.46%     75.30% |       13594      4.13%     79.43% |       14500      4.41%     83.84% |       13569      4.12%     87.96% |       14747      4.48%     92.45% |       12034      3.66%     96.10% |       12813      3.90%    100.00% |           0      0.00%    100.00% |           0      0.00%    100.00% |           0      0.00%    100.00% |           0      0.00%    100.00% |           0      0.00%    100.00% |           0      0.00%    100.00% |           0      0.00%    100.00% |           0      0.00%    100.00% |           0      0.00%    100.00% |           0      0.00%    100.00% |           0      0.00%    100.00% |           0      0.00%    100.00% |           0      0.00%    100.00% |           0      0.00%    100.00% |           0      0.00%    100.00% |           0      0.00%    100.00% |           0      0.00%    100.00% |           0      0.00%    100.00% |           0      0.00%    100.00% |           0      0.00%    100.00% |           0      0.00%    100.00% |           0      0.00%    100.00%
system.ruby.SimicsNetworkPortInterface_Controller.MessageSend::total       328954                      
system.ruby.SimicsNetworkPortInterface_Controller.MessageRecv |       54937     16.70%     16.70% |      164477     50.00%     66.70% |       13614      4.14%     70.84% |       14669      4.46%     75.30% |       13594      4.13%     79.43% |       14500      4.41%     83.84% |       13569      4.12%     87.96% |       14747      4.48%     92.45% |       12034      3.66%     96.10% |       12813      3.90%    100.00% |           0      0.00%    100.00% |           0      0.00%    100.00% |           0      0.00%    100.00% |           0      0.00%    100.00% |           0      0.00%    100.00% |           0      0.00%    100.00% |           0      0.00%    100.00% |           0      0.00%    100.00% |           0      0.00%    100.00% |           0      0.00%    100.00% |           0      0.00%    100.00% |           0      0.00%    100.00% |           0      0.00%    100.00% |           0      0.00%    100.00% |           0      0.00%    100.00% |           0      0.00%    100.00% |           0      0.00%    100.00% |           0      0.00%    100.00% |           0      0.00%    100.00% |           0      0.00%    100.00% |           0      0.00%    100.00% |           0      0.00%    100.00%
system.ruby.SimicsNetworkPortInterface_Controller.MessageRecv::total       328954                      
system.ruby.SimicsNetworkPortInterface_Controller.A.MessageSend |       54937     16.70%     16.70% |      164477     50.00%     66.70% |       13614      4.14%     70.84% |       14669      4.46%     75.30% |       13594      4.13%     79.43% |       14500      4.41%     83.84% |       13569      4.12%     87.96% |       14747      4.48%     92.45% |       12034      3.66%     96.10% |       12813      3.90%    100.00% |           0      0.00%    100.00% |           0      0.00%    100.00% |           0      0.00%    100.00% |           0      0.00%    100.00% |           0      0.00%    100.00% |           0      0.00%    100.00% |           0      0.00%    100.00% |           0      0.00%    100.00% |           0      0.00%    100.00% |           0      0.00%    100.00% |           0      0.00%    100.00% |           0      0.00%    100.00% |           0      0.00%    100.00% |           0      0.00%    100.00% |           0      0.00%    100.00% |           0      0.00%    100.00% |           0      0.00%    100.00% |           0      0.00%    100.00% |           0      0.00%    100.00% |           0      0.00%    100.00% |           0      0.00%    100.00% |           0      0.00%    100.00%
system.ruby.SimicsNetworkPortInterface_Controller.A.MessageSend::total       328954                      
system.ruby.SimicsNetworkPortInterface_Controller.A.MessageRecv |       54937     16.70%     16.70% |      164477     50.00%     66.70% |       13614      4.14%     70.84% |       14669      4.46%     75.30% |       13594      4.13%     79.43% |       14500      4.41%     83.84% |       13569      4.12%     87.96% |       14747      4.48%     92.45% |       12034      3.66%     96.10% |       12813      3.90%    100.00% |           0      0.00%    100.00% |           0      0.00%    100.00% |           0      0.00%    100.00% |           0      0.00%    100.00% |           0      0.00%    100.00% |           0      0.00%    100.00% |           0      0.00%    100.00% |           0      0.00%    100.00% |           0      0.00%    100.00% |           0      0.00%    100.00% |           0      0.00%    100.00% |           0      0.00%    100.00% |           0      0.00%    100.00% |           0      0.00%    100.00% |           0      0.00%    100.00% |           0      0.00%    100.00% |           0      0.00%    100.00% |           0      0.00%    100.00% |           0      0.00%    100.00% |           0      0.00%    100.00% |           0      0.00%    100.00% |           0      0.00%    100.00%
system.ruby.SimicsNetworkPortInterface_Controller.A.MessageRecv::total       328954                      
system.switch_cpus.kern.inst.arm                    0                       # number of arm instructions executed
system.switch_cpus.kern.inst.quiesce                0                       # number of quiesce instructions executed

---------- End Simulation Statistics   ----------
