
---------- Begin Simulation Statistics ----------
sim_seconds                                  0.153870                       # Number of seconds simulated
sim_ticks                                153869672000                       # Number of ticks simulated
final_tick                               5330037750500                       # Number of ticks from beginning of simulation (restored from checkpoints and never reset)
sim_freq                                 1000000000000                       # Frequency of simulated ticks
host_inst_rate                                  57442                       # Simulator instruction rate (inst/s)
host_op_rate                                   109392                       # Simulator op (including micro ops) rate (op/s)
host_tick_rate                              137009472                       # Simulator tick rate (ticks/s)
host_mem_usage                                4120804                       # Number of bytes of host memory used
host_seconds                                  1123.06                       # Real time elapsed on the host
sim_insts                                    64510689                       # Number of instructions simulated
sim_ops                                     122854176                       # Number of ops (including micro ops) simulated
system.voltage_domain.voltage                       1                       # Voltage in Volts
system.clk_domain.clock                           500                       # Clock period in ticks
system.mem_ctrls0.bytes_read::ruby.dir_cntrl0     25346112                       # Number of bytes read from this memory
system.mem_ctrls0.bytes_read::total          25346112                       # Number of bytes read from this memory
system.mem_ctrls0.bytes_written::ruby.dir_cntrl0     21421888                       # Number of bytes written to this memory
system.mem_ctrls0.bytes_written::total       21421888                       # Number of bytes written to this memory
system.mem_ctrls0.num_reads::ruby.dir_cntrl0       396033                       # Number of read requests responded to by this memory
system.mem_ctrls0.num_reads::total             396033                       # Number of read requests responded to by this memory
system.mem_ctrls0.num_writes::ruby.dir_cntrl0       334717                       # Number of write requests responded to by this memory
system.mem_ctrls0.num_writes::total            334717                       # Number of write requests responded to by this memory
system.mem_ctrls0.bw_read::ruby.dir_cntrl0    164724547                       # Total read bandwidth from this memory (bytes/s)
system.mem_ctrls0.bw_read::total            164724547                       # Total read bandwidth from this memory (bytes/s)
system.mem_ctrls0.bw_write::ruby.dir_cntrl0    139220990                       # Write bandwidth from this memory (bytes/s)
system.mem_ctrls0.bw_write::total           139220990                       # Write bandwidth from this memory (bytes/s)
system.mem_ctrls0.bw_total::ruby.dir_cntrl0    303945536                       # Total bandwidth to/from this memory (bytes/s)
system.mem_ctrls0.bw_total::total           303945536                       # Total bandwidth to/from this memory (bytes/s)
system.mem_ctrls0.readReqs                     396034                       # Number of read requests accepted
system.mem_ctrls0.writeReqs                    334717                       # Number of write requests accepted
system.mem_ctrls0.readBursts                   396034                       # Number of DRAM read bursts, including those serviced by the write queue
system.mem_ctrls0.writeBursts                  334717                       # Number of DRAM write bursts, including those merged in the write queue
system.mem_ctrls0.bytesReadDRAM              25345088                       # Total number of bytes read from DRAM
system.mem_ctrls0.bytesReadWrQ                   1088                       # Total number of bytes read from write queue
system.mem_ctrls0.bytesWritten               21421696                       # Total number of bytes written to DRAM
system.mem_ctrls0.bytesReadSys               25346176                       # Total read bytes from the system interface side
system.mem_ctrls0.bytesWrittenSys            21421888                       # Total written bytes from the system interface side
system.mem_ctrls0.servicedByWrQ                    17                       # Number of DRAM read bursts serviced by the write queue
system.mem_ctrls0.mergedWrBursts                    0                       # Number of DRAM write bursts merged with an existing one
system.mem_ctrls0.neitherReadNorWriteReqs            0                       # Number of requests that are neither read nor write
system.mem_ctrls0.perBankRdBursts::0            24420                       # Per bank write bursts
system.mem_ctrls0.perBankRdBursts::1            25156                       # Per bank write bursts
system.mem_ctrls0.perBankRdBursts::2            24723                       # Per bank write bursts
system.mem_ctrls0.perBankRdBursts::3            25003                       # Per bank write bursts
system.mem_ctrls0.perBankRdBursts::4            24639                       # Per bank write bursts
system.mem_ctrls0.perBankRdBursts::5            25030                       # Per bank write bursts
system.mem_ctrls0.perBankRdBursts::6            25104                       # Per bank write bursts
system.mem_ctrls0.perBankRdBursts::7            24808                       # Per bank write bursts
system.mem_ctrls0.perBankRdBursts::8            24711                       # Per bank write bursts
system.mem_ctrls0.perBankRdBursts::9            24852                       # Per bank write bursts
system.mem_ctrls0.perBankRdBursts::10           24663                       # Per bank write bursts
system.mem_ctrls0.perBankRdBursts::11           25182                       # Per bank write bursts
system.mem_ctrls0.perBankRdBursts::12           24388                       # Per bank write bursts
system.mem_ctrls0.perBankRdBursts::13           24314                       # Per bank write bursts
system.mem_ctrls0.perBankRdBursts::14           24472                       # Per bank write bursts
system.mem_ctrls0.perBankRdBursts::15           24552                       # Per bank write bursts
system.mem_ctrls0.perBankWrBursts::0            20946                       # Per bank write bursts
system.mem_ctrls0.perBankWrBursts::1            20855                       # Per bank write bursts
system.mem_ctrls0.perBankWrBursts::2            20809                       # Per bank write bursts
system.mem_ctrls0.perBankWrBursts::3            21096                       # Per bank write bursts
system.mem_ctrls0.perBankWrBursts::4            20733                       # Per bank write bursts
system.mem_ctrls0.perBankWrBursts::5            21089                       # Per bank write bursts
system.mem_ctrls0.perBankWrBursts::6            21143                       # Per bank write bursts
system.mem_ctrls0.perBankWrBursts::7            20996                       # Per bank write bursts
system.mem_ctrls0.perBankWrBursts::8            21151                       # Per bank write bursts
system.mem_ctrls0.perBankWrBursts::9            20884                       # Per bank write bursts
system.mem_ctrls0.perBankWrBursts::10           20865                       # Per bank write bursts
system.mem_ctrls0.perBankWrBursts::11           20917                       # Per bank write bursts
system.mem_ctrls0.perBankWrBursts::12           20655                       # Per bank write bursts
system.mem_ctrls0.perBankWrBursts::13           20890                       # Per bank write bursts
system.mem_ctrls0.perBankWrBursts::14           20900                       # Per bank write bursts
system.mem_ctrls0.perBankWrBursts::15           20785                       # Per bank write bursts
system.mem_ctrls0.numRdRetry                   152012                       # Number of times read queue was full causing retry
system.mem_ctrls0.numWrRetry                    19214                       # Number of times write queue was full causing retry
system.mem_ctrls0.totGap                 153869408500                       # Total gap between requests
system.mem_ctrls0.readPktSize::0                    0                       # Read request sizes (log2)
system.mem_ctrls0.readPktSize::1                    0                       # Read request sizes (log2)
system.mem_ctrls0.readPktSize::2                    0                       # Read request sizes (log2)
system.mem_ctrls0.readPktSize::3                    0                       # Read request sizes (log2)
system.mem_ctrls0.readPktSize::4                    0                       # Read request sizes (log2)
system.mem_ctrls0.readPktSize::5                    0                       # Read request sizes (log2)
system.mem_ctrls0.readPktSize::6               396034                       # Read request sizes (log2)
system.mem_ctrls0.writePktSize::0                   0                       # Write request sizes (log2)
system.mem_ctrls0.writePktSize::1                   0                       # Write request sizes (log2)
system.mem_ctrls0.writePktSize::2                   0                       # Write request sizes (log2)
system.mem_ctrls0.writePktSize::3                   0                       # Write request sizes (log2)
system.mem_ctrls0.writePktSize::4                   0                       # Write request sizes (log2)
system.mem_ctrls0.writePktSize::5                   0                       # Write request sizes (log2)
system.mem_ctrls0.writePktSize::6              334717                       # Write request sizes (log2)
system.mem_ctrls0.rdQLenPdf::0                 204513                       # What read queue length does an incoming req see
system.mem_ctrls0.rdQLenPdf::1                   5787                       # What read queue length does an incoming req see
system.mem_ctrls0.rdQLenPdf::2                   3198                       # What read queue length does an incoming req see
system.mem_ctrls0.rdQLenPdf::3                    699                       # What read queue length does an incoming req see
system.mem_ctrls0.rdQLenPdf::4                    784                       # What read queue length does an incoming req see
system.mem_ctrls0.rdQLenPdf::5                    838                       # What read queue length does an incoming req see
system.mem_ctrls0.rdQLenPdf::6                    905                       # What read queue length does an incoming req see
system.mem_ctrls0.rdQLenPdf::7                    937                       # What read queue length does an incoming req see
system.mem_ctrls0.rdQLenPdf::8                    916                       # What read queue length does an incoming req see
system.mem_ctrls0.rdQLenPdf::9                    873                       # What read queue length does an incoming req see
system.mem_ctrls0.rdQLenPdf::10                   874                       # What read queue length does an incoming req see
system.mem_ctrls0.rdQLenPdf::11                   830                       # What read queue length does an incoming req see
system.mem_ctrls0.rdQLenPdf::12                   824                       # What read queue length does an incoming req see
system.mem_ctrls0.rdQLenPdf::13                   837                       # What read queue length does an incoming req see
system.mem_ctrls0.rdQLenPdf::14                   814                       # What read queue length does an incoming req see
system.mem_ctrls0.rdQLenPdf::15                   785                       # What read queue length does an incoming req see
system.mem_ctrls0.rdQLenPdf::16                   716                       # What read queue length does an incoming req see
system.mem_ctrls0.rdQLenPdf::17                   736                       # What read queue length does an incoming req see
system.mem_ctrls0.rdQLenPdf::18                   725                       # What read queue length does an incoming req see
system.mem_ctrls0.rdQLenPdf::19                   730                       # What read queue length does an incoming req see
system.mem_ctrls0.rdQLenPdf::20                   752                       # What read queue length does an incoming req see
system.mem_ctrls0.rdQLenPdf::21                   697                       # What read queue length does an incoming req see
system.mem_ctrls0.rdQLenPdf::22                   671                       # What read queue length does an incoming req see
system.mem_ctrls0.rdQLenPdf::23                   745                       # What read queue length does an incoming req see
system.mem_ctrls0.rdQLenPdf::24                   782                       # What read queue length does an incoming req see
system.mem_ctrls0.rdQLenPdf::25                   792                       # What read queue length does an incoming req see
system.mem_ctrls0.rdQLenPdf::26                   861                       # What read queue length does an incoming req see
system.mem_ctrls0.rdQLenPdf::27                   874                       # What read queue length does an incoming req see
system.mem_ctrls0.rdQLenPdf::28                  1071                       # What read queue length does an incoming req see
system.mem_ctrls0.rdQLenPdf::29                  1427                       # What read queue length does an incoming req see
system.mem_ctrls0.rdQLenPdf::30                  2507                       # What read queue length does an incoming req see
system.mem_ctrls0.rdQLenPdf::31                157517                       # What read queue length does an incoming req see
system.mem_ctrls0.wrQLenPdf::0                  48468                       # What write queue length does an incoming req see
system.mem_ctrls0.wrQLenPdf::1                  50126                       # What write queue length does an incoming req see
system.mem_ctrls0.wrQLenPdf::2                  51492                       # What write queue length does an incoming req see
system.mem_ctrls0.wrQLenPdf::3                  52015                       # What write queue length does an incoming req see
system.mem_ctrls0.wrQLenPdf::4                  53704                       # What write queue length does an incoming req see
system.mem_ctrls0.wrQLenPdf::5                  16733                       # What write queue length does an incoming req see
system.mem_ctrls0.wrQLenPdf::6                  22425                       # What write queue length does an incoming req see
system.mem_ctrls0.wrQLenPdf::7                  39754                       # What write queue length does an incoming req see
system.mem_ctrls0.bytesPerActivate::samples       249339                       # Bytes accessed per row activation
system.mem_ctrls0.bytesPerActivate::mean   187.558176                       # Bytes accessed per row activation
system.mem_ctrls0.bytesPerActivate::gmean   144.479564                       # Bytes accessed per row activation
system.mem_ctrls0.bytesPerActivate::stdev   141.791380                       # Bytes accessed per row activation
system.mem_ctrls0.bytesPerActivate::0-127        93091     37.34%     37.34% # Bytes accessed per row activation
system.mem_ctrls0.bytesPerActivate::128-255        67999     27.27%     64.61% # Bytes accessed per row activation
system.mem_ctrls0.bytesPerActivate::256-383        70648     28.33%     92.94% # Bytes accessed per row activation
system.mem_ctrls0.bytesPerActivate::384-511         9009      3.61%     96.55% # Bytes accessed per row activation
system.mem_ctrls0.bytesPerActivate::512-639         4870      1.95%     98.51% # Bytes accessed per row activation
system.mem_ctrls0.bytesPerActivate::640-767         1660      0.67%     99.17% # Bytes accessed per row activation
system.mem_ctrls0.bytesPerActivate::768-895          797      0.32%     99.49% # Bytes accessed per row activation
system.mem_ctrls0.bytesPerActivate::896-1023          576      0.23%     99.72% # Bytes accessed per row activation
system.mem_ctrls0.bytesPerActivate::1024-1151          689      0.28%    100.00% # Bytes accessed per row activation
system.mem_ctrls0.bytesPerActivate::total       249339                       # Bytes accessed per row activation
system.mem_ctrls0.rdPerTurnAround::samples        49842                       # Reads before turning the bus around for writes
system.mem_ctrls0.rdPerTurnAround::mean      7.945448                       # Reads before turning the bus around for writes
system.mem_ctrls0.rdPerTurnAround::stdev    18.977102                       # Reads before turning the bus around for writes
system.mem_ctrls0.rdPerTurnAround::0-127        49834     99.98%     99.98% # Reads before turning the bus around for writes
system.mem_ctrls0.rdPerTurnAround::128-255            7      0.01%    100.00% # Reads before turning the bus around for writes
system.mem_ctrls0.rdPerTurnAround::3968-4095            1      0.00%    100.00% # Reads before turning the bus around for writes
system.mem_ctrls0.rdPerTurnAround::total        49842                       # Reads before turning the bus around for writes
system.mem_ctrls0.wrPerTurnAround::samples        49841                       # Writes before turning the bus around for reads
system.mem_ctrls0.wrPerTurnAround::mean      6.715596                       # Writes before turning the bus around for reads
system.mem_ctrls0.wrPerTurnAround::gmean     6.098311                       # Writes before turning the bus around for reads
system.mem_ctrls0.wrPerTurnAround::stdev     3.538511                       # Writes before turning the bus around for reads
system.mem_ctrls0.wrPerTurnAround::4-7          40139     80.53%     80.53% # Writes before turning the bus around for reads
system.mem_ctrls0.wrPerTurnAround::8-11          1578      3.17%     83.70% # Writes before turning the bus around for reads
system.mem_ctrls0.wrPerTurnAround::12-15         5644     11.32%     95.02% # Writes before turning the bus around for reads
system.mem_ctrls0.wrPerTurnAround::16-19         2480      4.98%    100.00% # Writes before turning the bus around for reads
system.mem_ctrls0.wrPerTurnAround::total        49841                       # Writes before turning the bus around for reads
system.mem_ctrls0.totQLat                 69568273477                       # Total ticks spent queuing
system.mem_ctrls0.totMemAccLat            76993592227                       # Total ticks spent from burst creation until serviced by the DRAM
system.mem_ctrls0.totBusLat                1980085000                       # Total ticks spent in databus transfers
system.mem_ctrls0.avgQLat                   175669.92                       # Average queueing delay per DRAM burst
system.mem_ctrls0.avgBusLat                   5000.00                       # Average bus latency per DRAM burst
system.mem_ctrls0.avgMemAccLat              194419.92                       # Average memory access latency per DRAM burst
system.mem_ctrls0.avgRdBW                      164.72                       # Average DRAM read bandwidth in MiByte/s
system.mem_ctrls0.avgWrBW                      139.22                       # Average achieved write bandwidth in MiByte/s
system.mem_ctrls0.avgRdBWSys                   164.72                       # Average system read bandwidth in MiByte/s
system.mem_ctrls0.avgWrBWSys                   139.22                       # Average system write bandwidth in MiByte/s
system.mem_ctrls0.peakBW                     12800.00                       # Theoretical peak bandwidth in MiByte/s
system.mem_ctrls0.busUtil                        2.37                       # Data bus utilization in percentage
system.mem_ctrls0.busUtilRead                    1.29                       # Data bus utilization in percentage for reads
system.mem_ctrls0.busUtilWrite                   1.09                       # Data bus utilization in percentage for writes
system.mem_ctrls0.avgRdQLen                      1.46                       # Average read queue length when enqueuing
system.mem_ctrls0.avgWrQLen                      2.99                       # Average write queue length when enqueuing
system.mem_ctrls0.readRowHits                  279882                       # Number of row buffer hits during reads
system.mem_ctrls0.writeRowHits                 201496                       # Number of row buffer hits during writes
system.mem_ctrls0.readRowHitRate                70.67                       # Row buffer hit rate for reads
system.mem_ctrls0.writeRowHitRate               60.20                       # Row buffer hit rate for writes
system.mem_ctrls0.avgGap                    210563.39                       # Average gap between requests
system.mem_ctrls0.pageHitRate                   65.88                       # Row buffer hit rate, read and write combined
system.mem_ctrls0.memoryStateTime::IDLE   26565825750                       # Time in different power states
system.mem_ctrls0.memoryStateTime::REF     5137860000                       # Time in different power states
system.mem_ctrls0.memoryStateTime::PRE_PDN            0                       # Time in different power states
system.mem_ctrls0.memoryStateTime::ACT   122160674250                       # Time in different power states
system.mem_ctrls0.memoryStateTime::ACT_PDN            0                       # Time in different power states
system.mem_ctrls0.actEnergy::0              947441880                       # Energy for activate commands per rank (pJ)
system.mem_ctrls0.actEnergy::1              937349280                       # Energy for activate commands per rank (pJ)
system.mem_ctrls0.preEnergy::0              516957375                       # Energy for precharge commands per rank (pJ)
system.mem_ctrls0.preEnergy::1              511450500                       # Energy for precharge commands per rank (pJ)
system.mem_ctrls0.readEnergy::0            1551193800                       # Energy for read commands per rank (pJ)
system.mem_ctrls0.readEnergy::1            1537387800                       # Energy for read commands per rank (pJ)
system.mem_ctrls0.writeEnergy::0           1086417360                       # Energy for write commands per rank (pJ)
system.mem_ctrls0.writeEnergy::1           1082276640                       # Energy for write commands per rank (pJ)
system.mem_ctrls0.refreshEnergy::0        10049654160                       # Energy for refresh commands per rank (pJ)
system.mem_ctrls0.refreshEnergy::1        10049654160                       # Energy for refresh commands per rank (pJ)
system.mem_ctrls0.actBackEnergy::0        61150128390                       # Energy for active background per rank (pJ)
system.mem_ctrls0.actBackEnergy::1        60892898220                       # Energy for active background per rank (pJ)
system.mem_ctrls0.preBackEnergy::0        38678144250                       # Energy for precharge background per rank (pJ)
system.mem_ctrls0.preBackEnergy::1        38903784750                       # Energy for precharge background per rank (pJ)
system.mem_ctrls0.totalEnergy::0         113979937215                       # Total energy per rank (pJ)
system.mem_ctrls0.totalEnergy::1         113914801350                       # Total energy per rank (pJ)
system.mem_ctrls0.averagePower::0          740.781994                       # Core power per rank (mW)
system.mem_ctrls0.averagePower::1          740.358661                       # Core power per rank (mW)
system.mem_ctrls1.bytes_read::ruby.dir_cntrl1     24526848                       # Number of bytes read from this memory
system.mem_ctrls1.bytes_read::total          24526848                       # Number of bytes read from this memory
system.mem_ctrls1.bytes_written::ruby.dir_cntrl1     20653952                       # Number of bytes written to this memory
system.mem_ctrls1.bytes_written::total       20653952                       # Number of bytes written to this memory
system.mem_ctrls1.num_reads::ruby.dir_cntrl1       383232                       # Number of read requests responded to by this memory
system.mem_ctrls1.num_reads::total             383232                       # Number of read requests responded to by this memory
system.mem_ctrls1.num_writes::ruby.dir_cntrl1       322718                       # Number of write requests responded to by this memory
system.mem_ctrls1.num_writes::total            322718                       # Number of write requests responded to by this memory
system.mem_ctrls1.bw_read::ruby.dir_cntrl1    159400145                       # Total read bandwidth from this memory (bytes/s)
system.mem_ctrls1.bw_read::total            159400145                       # Total read bandwidth from this memory (bytes/s)
system.mem_ctrls1.bw_write::ruby.dir_cntrl1    134230169                       # Write bandwidth from this memory (bytes/s)
system.mem_ctrls1.bw_write::total           134230169                       # Write bandwidth from this memory (bytes/s)
system.mem_ctrls1.bw_total::ruby.dir_cntrl1    293630313                       # Total bandwidth to/from this memory (bytes/s)
system.mem_ctrls1.bw_total::total           293630313                       # Total bandwidth to/from this memory (bytes/s)
system.mem_ctrls1.readReqs                     383232                       # Number of read requests accepted
system.mem_ctrls1.writeReqs                    322718                       # Number of write requests accepted
system.mem_ctrls1.readBursts                   383232                       # Number of DRAM read bursts, including those serviced by the write queue
system.mem_ctrls1.writeBursts                  322718                       # Number of DRAM write bursts, including those merged in the write queue
system.mem_ctrls1.bytesReadDRAM              24525888                       # Total number of bytes read from DRAM
system.mem_ctrls1.bytesReadWrQ                    960                       # Total number of bytes read from write queue
system.mem_ctrls1.bytesWritten               20653824                       # Total number of bytes written to DRAM
system.mem_ctrls1.bytesReadSys               24526848                       # Total read bytes from the system interface side
system.mem_ctrls1.bytesWrittenSys            20653952                       # Total written bytes from the system interface side
system.mem_ctrls1.servicedByWrQ                    15                       # Number of DRAM read bursts serviced by the write queue
system.mem_ctrls1.mergedWrBursts                    0                       # Number of DRAM write bursts merged with an existing one
system.mem_ctrls1.neitherReadNorWriteReqs            0                       # Number of requests that are neither read nor write
system.mem_ctrls1.perBankRdBursts::0            23652                       # Per bank write bursts
system.mem_ctrls1.perBankRdBursts::1            24354                       # Per bank write bursts
system.mem_ctrls1.perBankRdBursts::2            23915                       # Per bank write bursts
system.mem_ctrls1.perBankRdBursts::3            24204                       # Per bank write bursts
system.mem_ctrls1.perBankRdBursts::4            23868                       # Per bank write bursts
system.mem_ctrls1.perBankRdBursts::5            24237                       # Per bank write bursts
system.mem_ctrls1.perBankRdBursts::6            24300                       # Per bank write bursts
system.mem_ctrls1.perBankRdBursts::7            24042                       # Per bank write bursts
system.mem_ctrls1.perBankRdBursts::8            23915                       # Per bank write bursts
system.mem_ctrls1.perBankRdBursts::9            24042                       # Per bank write bursts
system.mem_ctrls1.perBankRdBursts::10           23830                       # Per bank write bursts
system.mem_ctrls1.perBankRdBursts::11           24390                       # Per bank write bursts
system.mem_ctrls1.perBankRdBursts::12           23594                       # Per bank write bursts
system.mem_ctrls1.perBankRdBursts::13           23500                       # Per bank write bursts
system.mem_ctrls1.perBankRdBursts::14           23598                       # Per bank write bursts
system.mem_ctrls1.perBankRdBursts::15           23776                       # Per bank write bursts
system.mem_ctrls1.perBankWrBursts::0            20201                       # Per bank write bursts
system.mem_ctrls1.perBankWrBursts::1            20122                       # Per bank write bursts
system.mem_ctrls1.perBankWrBursts::2            20074                       # Per bank write bursts
system.mem_ctrls1.perBankWrBursts::3            20356                       # Per bank write bursts
system.mem_ctrls1.perBankWrBursts::4            19995                       # Per bank write bursts
system.mem_ctrls1.perBankWrBursts::5            20356                       # Per bank write bursts
system.mem_ctrls1.perBankWrBursts::6            20383                       # Per bank write bursts
system.mem_ctrls1.perBankWrBursts::7            20241                       # Per bank write bursts
system.mem_ctrls1.perBankWrBursts::8            20390                       # Per bank write bursts
system.mem_ctrls1.perBankWrBursts::9            20128                       # Per bank write bursts
system.mem_ctrls1.perBankWrBursts::10           20118                       # Per bank write bursts
system.mem_ctrls1.perBankWrBursts::11           20172                       # Per bank write bursts
system.mem_ctrls1.perBankWrBursts::12           19908                       # Per bank write bursts
system.mem_ctrls1.perBankWrBursts::13           20136                       # Per bank write bursts
system.mem_ctrls1.perBankWrBursts::14           20093                       # Per bank write bursts
system.mem_ctrls1.perBankWrBursts::15           20043                       # Per bank write bursts
system.mem_ctrls1.numRdRetry                   135507                       # Number of times read queue was full causing retry
system.mem_ctrls1.numWrRetry                    18474                       # Number of times write queue was full causing retry
system.mem_ctrls1.totGap                 153868936000                       # Total gap between requests
system.mem_ctrls1.readPktSize::0                    0                       # Read request sizes (log2)
system.mem_ctrls1.readPktSize::1                    0                       # Read request sizes (log2)
system.mem_ctrls1.readPktSize::2                    0                       # Read request sizes (log2)
system.mem_ctrls1.readPktSize::3                    0                       # Read request sizes (log2)
system.mem_ctrls1.readPktSize::4                    0                       # Read request sizes (log2)
system.mem_ctrls1.readPktSize::5                    0                       # Read request sizes (log2)
system.mem_ctrls1.readPktSize::6               383232                       # Read request sizes (log2)
system.mem_ctrls1.writePktSize::0                   0                       # Write request sizes (log2)
system.mem_ctrls1.writePktSize::1                   0                       # Write request sizes (log2)
system.mem_ctrls1.writePktSize::2                   0                       # Write request sizes (log2)
system.mem_ctrls1.writePktSize::3                   0                       # Write request sizes (log2)
system.mem_ctrls1.writePktSize::4                   0                       # Write request sizes (log2)
system.mem_ctrls1.writePktSize::5                   0                       # Write request sizes (log2)
system.mem_ctrls1.writePktSize::6              322718                       # Write request sizes (log2)
system.mem_ctrls1.rdQLenPdf::0                 200477                       # What read queue length does an incoming req see
system.mem_ctrls1.rdQLenPdf::1                   1654                       # What read queue length does an incoming req see
system.mem_ctrls1.rdQLenPdf::2                   1189                       # What read queue length does an incoming req see
system.mem_ctrls1.rdQLenPdf::3                   1259                       # What read queue length does an incoming req see
system.mem_ctrls1.rdQLenPdf::4                   1462                       # What read queue length does an incoming req see
system.mem_ctrls1.rdQLenPdf::5                   1517                       # What read queue length does an incoming req see
system.mem_ctrls1.rdQLenPdf::6                   1486                       # What read queue length does an incoming req see
system.mem_ctrls1.rdQLenPdf::7                   1479                       # What read queue length does an incoming req see
system.mem_ctrls1.rdQLenPdf::8                   1521                       # What read queue length does an incoming req see
system.mem_ctrls1.rdQLenPdf::9                   1476                       # What read queue length does an incoming req see
system.mem_ctrls1.rdQLenPdf::10                  1402                       # What read queue length does an incoming req see
system.mem_ctrls1.rdQLenPdf::11                  1366                       # What read queue length does an incoming req see
system.mem_ctrls1.rdQLenPdf::12                  1357                       # What read queue length does an incoming req see
system.mem_ctrls1.rdQLenPdf::13                  1351                       # What read queue length does an incoming req see
system.mem_ctrls1.rdQLenPdf::14                  1294                       # What read queue length does an incoming req see
system.mem_ctrls1.rdQLenPdf::15                  1277                       # What read queue length does an incoming req see
system.mem_ctrls1.rdQLenPdf::16                  1307                       # What read queue length does an incoming req see
system.mem_ctrls1.rdQLenPdf::17                  1246                       # What read queue length does an incoming req see
system.mem_ctrls1.rdQLenPdf::18                  1167                       # What read queue length does an incoming req see
system.mem_ctrls1.rdQLenPdf::19                  1231                       # What read queue length does an incoming req see
system.mem_ctrls1.rdQLenPdf::20                  1177                       # What read queue length does an incoming req see
system.mem_ctrls1.rdQLenPdf::21                  1129                       # What read queue length does an incoming req see
system.mem_ctrls1.rdQLenPdf::22                  1136                       # What read queue length does an incoming req see
system.mem_ctrls1.rdQLenPdf::23                  1099                       # What read queue length does an incoming req see
system.mem_ctrls1.rdQLenPdf::24                  1119                       # What read queue length does an incoming req see
system.mem_ctrls1.rdQLenPdf::25                  1205                       # What read queue length does an incoming req see
system.mem_ctrls1.rdQLenPdf::26                  1249                       # What read queue length does an incoming req see
system.mem_ctrls1.rdQLenPdf::27                  1350                       # What read queue length does an incoming req see
system.mem_ctrls1.rdQLenPdf::28                  1536                       # What read queue length does an incoming req see
system.mem_ctrls1.rdQLenPdf::29                  1913                       # What read queue length does an incoming req see
system.mem_ctrls1.rdQLenPdf::30                  2861                       # What read queue length does an incoming req see
system.mem_ctrls1.rdQLenPdf::31                140925                       # What read queue length does an incoming req see
system.mem_ctrls1.wrQLenPdf::0                  46539                       # What write queue length does an incoming req see
system.mem_ctrls1.wrQLenPdf::1                  48499                       # What write queue length does an incoming req see
system.mem_ctrls1.wrQLenPdf::2                  49497                       # What write queue length does an incoming req see
system.mem_ctrls1.wrQLenPdf::3                  50566                       # What write queue length does an incoming req see
system.mem_ctrls1.wrQLenPdf::4                  52146                       # What write queue length does an incoming req see
system.mem_ctrls1.wrQLenPdf::5                  16543                       # What write queue length does an incoming req see
system.mem_ctrls1.wrQLenPdf::6                  21136                       # What write queue length does an incoming req see
system.mem_ctrls1.wrQLenPdf::7                  37792                       # What write queue length does an incoming req see
system.mem_ctrls1.bytesPerActivate::samples       218667                       # Bytes accessed per row activation
system.mem_ctrls1.bytesPerActivate::mean   206.611002                       # Bytes accessed per row activation
system.mem_ctrls1.bytesPerActivate::gmean   162.937982                       # Bytes accessed per row activation
system.mem_ctrls1.bytesPerActivate::stdev   145.726473                       # Bytes accessed per row activation
system.mem_ctrls1.bytesPerActivate::0-127        61361     28.06%     28.06% # Bytes accessed per row activation
system.mem_ctrls1.bytesPerActivate::128-255        67855     31.03%     59.09% # Bytes accessed per row activation
system.mem_ctrls1.bytesPerActivate::256-383        70907     32.43%     91.52% # Bytes accessed per row activation
system.mem_ctrls1.bytesPerActivate::384-511         9040      4.13%     95.65% # Bytes accessed per row activation
system.mem_ctrls1.bytesPerActivate::512-639         5406      2.47%     98.13% # Bytes accessed per row activation
system.mem_ctrls1.bytesPerActivate::640-767         1723      0.79%     98.91% # Bytes accessed per row activation
system.mem_ctrls1.bytesPerActivate::768-895          934      0.43%     99.34% # Bytes accessed per row activation
system.mem_ctrls1.bytesPerActivate::896-1023          652      0.30%     99.64% # Bytes accessed per row activation
system.mem_ctrls1.bytesPerActivate::1024-1151          789      0.36%    100.00% # Bytes accessed per row activation
system.mem_ctrls1.bytesPerActivate::total       218667                       # Bytes accessed per row activation
system.mem_ctrls1.rdPerTurnAround::samples        48035                       # Reads before turning the bus around for writes
system.mem_ctrls1.rdPerTurnAround::mean      7.977829                       # Reads before turning the bus around for writes
system.mem_ctrls1.rdPerTurnAround::stdev    15.642433                       # Reads before turning the bus around for writes
system.mem_ctrls1.rdPerTurnAround::0-127        48029     99.99%     99.99% # Reads before turning the bus around for writes
system.mem_ctrls1.rdPerTurnAround::128-255            4      0.01%    100.00% # Reads before turning the bus around for writes
system.mem_ctrls1.rdPerTurnAround::1152-1279            1      0.00%    100.00% # Reads before turning the bus around for writes
system.mem_ctrls1.rdPerTurnAround::2816-2943            1      0.00%    100.00% # Reads before turning the bus around for writes
system.mem_ctrls1.rdPerTurnAround::total        48035                       # Reads before turning the bus around for writes
system.mem_ctrls1.wrPerTurnAround::samples        48035                       # Writes before turning the bus around for reads
system.mem_ctrls1.wrPerTurnAround::mean      6.718351                       # Writes before turning the bus around for reads
system.mem_ctrls1.wrPerTurnAround::gmean     6.096299                       # Writes before turning the bus around for reads
system.mem_ctrls1.wrPerTurnAround::stdev     3.552884                       # Writes before turning the bus around for reads
system.mem_ctrls1.wrPerTurnAround::4-7          38447     80.04%     80.04% # Writes before turning the bus around for reads
system.mem_ctrls1.wrPerTurnAround::8-11          1868      3.89%     83.93% # Writes before turning the bus around for reads
system.mem_ctrls1.wrPerTurnAround::12-15         5149     10.72%     94.65% # Writes before turning the bus around for reads
system.mem_ctrls1.wrPerTurnAround::16-19         2571      5.35%    100.00% # Writes before turning the bus around for reads
system.mem_ctrls1.wrPerTurnAround::total        48035                       # Writes before turning the bus around for reads
system.mem_ctrls1.totQLat                 64508140845                       # Total ticks spent queuing
system.mem_ctrls1.totMemAccLat            71693459595                       # Total ticks spent from burst creation until serviced by the DRAM
system.mem_ctrls1.totBusLat                1916085000                       # Total ticks spent in databus transfers
system.mem_ctrls1.avgQLat                   168333.19                       # Average queueing delay per DRAM burst
system.mem_ctrls1.avgBusLat                   5000.00                       # Average bus latency per DRAM burst
system.mem_ctrls1.avgMemAccLat              187083.19                       # Average memory access latency per DRAM burst
system.mem_ctrls1.avgRdBW                      159.39                       # Average DRAM read bandwidth in MiByte/s
system.mem_ctrls1.avgWrBW                      134.23                       # Average achieved write bandwidth in MiByte/s
system.mem_ctrls1.avgRdBWSys                   159.40                       # Average system read bandwidth in MiByte/s
system.mem_ctrls1.avgWrBWSys                   134.23                       # Average system write bandwidth in MiByte/s
system.mem_ctrls1.peakBW                     12800.00                       # Theoretical peak bandwidth in MiByte/s
system.mem_ctrls1.busUtil                        2.29                       # Data bus utilization in percentage
system.mem_ctrls1.busUtilRead                    1.25                       # Data bus utilization in percentage for reads
system.mem_ctrls1.busUtilWrite                   1.05                       # Data bus utilization in percentage for writes
system.mem_ctrls1.avgRdQLen                      1.42                       # Average read queue length when enqueuing
system.mem_ctrls1.avgWrQLen                      3.00                       # Average write queue length when enqueuing
system.mem_ctrls1.readRowHits                  277278                       # Number of row buffer hits during reads
system.mem_ctrls1.writeRowHits                 209978                       # Number of row buffer hits during writes
system.mem_ctrls1.readRowHitRate                72.36                       # Row buffer hit rate for reads
system.mem_ctrls1.writeRowHitRate               65.07                       # Row buffer hit rate for writes
system.mem_ctrls1.avgGap                    217960.10                       # Average gap between requests
system.mem_ctrls1.pageHitRate                   69.02                       # Row buffer hit rate, read and write combined
system.mem_ctrls1.memoryStateTime::IDLE   27041890500                       # Time in different power states
system.mem_ctrls1.memoryStateTime::REF     5137860000                       # Time in different power states
system.mem_ctrls1.memoryStateTime::PRE_PDN            0                       # Time in different power states
system.mem_ctrls1.memoryStateTime::ACT   121684609500                       # Time in different power states
system.mem_ctrls1.memoryStateTime::ACT_PDN            0                       # Time in different power states
system.mem_ctrls1.actEnergy::0              832446720                       # Energy for activate commands per rank (pJ)
system.mem_ctrls1.actEnergy::1              820517040                       # Energy for activate commands per rank (pJ)
system.mem_ctrls1.preEnergy::0              454212000                       # Energy for precharge commands per rank (pJ)
system.mem_ctrls1.preEnergy::1              447702750                       # Energy for precharge commands per rank (pJ)
system.mem_ctrls1.readEnergy::0            1501991400                       # Energy for read commands per rank (pJ)
system.mem_ctrls1.readEnergy::1            1486789200                       # Energy for read commands per rank (pJ)
system.mem_ctrls1.writeEnergy::0           1047945600                       # Energy for write commands per rank (pJ)
system.mem_ctrls1.writeEnergy::1           1043027280                       # Energy for write commands per rank (pJ)
system.mem_ctrls1.refreshEnergy::0        10049654160                       # Energy for refresh commands per rank (pJ)
system.mem_ctrls1.refreshEnergy::1        10049654160                       # Energy for refresh commands per rank (pJ)
system.mem_ctrls1.actBackEnergy::0        60117757785                       # Energy for active background per rank (pJ)
system.mem_ctrls1.actBackEnergy::1        59642348715                       # Energy for active background per rank (pJ)
system.mem_ctrls1.preBackEnergy::0        39583732500                       # Energy for precharge background per rank (pJ)
system.mem_ctrls1.preBackEnergy::1        40000758000                       # Energy for precharge background per rank (pJ)
system.mem_ctrls1.totalEnergy::0         113587740165                       # Total energy per rank (pJ)
system.mem_ctrls1.totalEnergy::1         113490797145                       # Total energy per rank (pJ)
system.mem_ctrls1.averagePower::0          738.233015                       # Core power per rank (mW)
system.mem_ctrls1.averagePower::1          737.602959                       # Core power per rank (mW)
system.mem_ctrls2.bytes_read::ruby.dir_cntrl2     24527744                       # Number of bytes read from this memory
system.mem_ctrls2.bytes_read::total          24527744                       # Number of bytes read from this memory
system.mem_ctrls2.bytes_written::ruby.dir_cntrl2     20655552                       # Number of bytes written to this memory
system.mem_ctrls2.bytes_written::total       20655552                       # Number of bytes written to this memory
system.mem_ctrls2.num_reads::ruby.dir_cntrl2       383246                       # Number of read requests responded to by this memory
system.mem_ctrls2.num_reads::total             383246                       # Number of read requests responded to by this memory
system.mem_ctrls2.num_writes::ruby.dir_cntrl2       322743                       # Number of write requests responded to by this memory
system.mem_ctrls2.num_writes::total            322743                       # Number of write requests responded to by this memory
system.mem_ctrls2.bw_read::ruby.dir_cntrl2    159405968                       # Total read bandwidth from this memory (bytes/s)
system.mem_ctrls2.bw_read::total            159405968                       # Total read bandwidth from this memory (bytes/s)
system.mem_ctrls2.bw_write::ruby.dir_cntrl2    134240567                       # Write bandwidth from this memory (bytes/s)
system.mem_ctrls2.bw_write::total           134240567                       # Write bandwidth from this memory (bytes/s)
system.mem_ctrls2.bw_total::ruby.dir_cntrl2    293646535                       # Total bandwidth to/from this memory (bytes/s)
system.mem_ctrls2.bw_total::total           293646535                       # Total bandwidth to/from this memory (bytes/s)
system.mem_ctrls2.readReqs                     383246                       # Number of read requests accepted
system.mem_ctrls2.writeReqs                    322743                       # Number of write requests accepted
system.mem_ctrls2.readBursts                   383246                       # Number of DRAM read bursts, including those serviced by the write queue
system.mem_ctrls2.writeBursts                  322743                       # Number of DRAM write bursts, including those merged in the write queue
system.mem_ctrls2.bytesReadDRAM              24526592                       # Total number of bytes read from DRAM
system.mem_ctrls2.bytesReadWrQ                   1152                       # Total number of bytes read from write queue
system.mem_ctrls2.bytesWritten               20655424                       # Total number of bytes written to DRAM
system.mem_ctrls2.bytesReadSys               24527744                       # Total read bytes from the system interface side
system.mem_ctrls2.bytesWrittenSys            20655552                       # Total written bytes from the system interface side
system.mem_ctrls2.servicedByWrQ                    18                       # Number of DRAM read bursts serviced by the write queue
system.mem_ctrls2.mergedWrBursts                    0                       # Number of DRAM write bursts merged with an existing one
system.mem_ctrls2.neitherReadNorWriteReqs            0                       # Number of requests that are neither read nor write
system.mem_ctrls2.perBankRdBursts::0            23641                       # Per bank write bursts
system.mem_ctrls2.perBankRdBursts::1            24326                       # Per bank write bursts
system.mem_ctrls2.perBankRdBursts::2            23959                       # Per bank write bursts
system.mem_ctrls2.perBankRdBursts::3            24276                       # Per bank write bursts
system.mem_ctrls2.perBankRdBursts::4            23867                       # Per bank write bursts
system.mem_ctrls2.perBankRdBursts::5            24208                       # Per bank write bursts
system.mem_ctrls2.perBankRdBursts::6            24299                       # Per bank write bursts
system.mem_ctrls2.perBankRdBursts::7            24028                       # Per bank write bursts
system.mem_ctrls2.perBankRdBursts::8            23897                       # Per bank write bursts
system.mem_ctrls2.perBankRdBursts::9            24053                       # Per bank write bursts
system.mem_ctrls2.perBankRdBursts::10           23834                       # Per bank write bursts
system.mem_ctrls2.perBankRdBursts::11           24379                       # Per bank write bursts
system.mem_ctrls2.perBankRdBursts::12           23625                       # Per bank write bursts
system.mem_ctrls2.perBankRdBursts::13           23442                       # Per bank write bursts
system.mem_ctrls2.perBankRdBursts::14           23589                       # Per bank write bursts
system.mem_ctrls2.perBankRdBursts::15           23805                       # Per bank write bursts
system.mem_ctrls2.perBankWrBursts::0            20195                       # Per bank write bursts
system.mem_ctrls2.perBankWrBursts::1            20121                       # Per bank write bursts
system.mem_ctrls2.perBankWrBursts::2            20077                       # Per bank write bursts
system.mem_ctrls2.perBankWrBursts::3            20362                       # Per bank write bursts
system.mem_ctrls2.perBankWrBursts::4            19997                       # Per bank write bursts
system.mem_ctrls2.perBankWrBursts::5            20341                       # Per bank write bursts
system.mem_ctrls2.perBankWrBursts::6            20391                       # Per bank write bursts
system.mem_ctrls2.perBankWrBursts::7            20249                       # Per bank write bursts
system.mem_ctrls2.perBankWrBursts::8            20392                       # Per bank write bursts
system.mem_ctrls2.perBankWrBursts::9            20134                       # Per bank write bursts
system.mem_ctrls2.perBankWrBursts::10           20111                       # Per bank write bursts
system.mem_ctrls2.perBankWrBursts::11           20169                       # Per bank write bursts
system.mem_ctrls2.perBankWrBursts::12           19910                       # Per bank write bursts
system.mem_ctrls2.perBankWrBursts::13           20131                       # Per bank write bursts
system.mem_ctrls2.perBankWrBursts::14           20103                       # Per bank write bursts
system.mem_ctrls2.perBankWrBursts::15           20058                       # Per bank write bursts
system.mem_ctrls2.numRdRetry                   133467                       # Number of times read queue was full causing retry
system.mem_ctrls2.numWrRetry                    19010                       # Number of times write queue was full causing retry
system.mem_ctrls2.totGap                 153868738000                       # Total gap between requests
system.mem_ctrls2.readPktSize::0                    0                       # Read request sizes (log2)
system.mem_ctrls2.readPktSize::1                    0                       # Read request sizes (log2)
system.mem_ctrls2.readPktSize::2                    0                       # Read request sizes (log2)
system.mem_ctrls2.readPktSize::3                    0                       # Read request sizes (log2)
system.mem_ctrls2.readPktSize::4                    0                       # Read request sizes (log2)
system.mem_ctrls2.readPktSize::5                    0                       # Read request sizes (log2)
system.mem_ctrls2.readPktSize::6               383246                       # Read request sizes (log2)
system.mem_ctrls2.writePktSize::0                   0                       # Write request sizes (log2)
system.mem_ctrls2.writePktSize::1                   0                       # Write request sizes (log2)
system.mem_ctrls2.writePktSize::2                   0                       # Write request sizes (log2)
system.mem_ctrls2.writePktSize::3                   0                       # Write request sizes (log2)
system.mem_ctrls2.writePktSize::4                   0                       # Write request sizes (log2)
system.mem_ctrls2.writePktSize::5                   0                       # Write request sizes (log2)
system.mem_ctrls2.writePktSize::6              322743                       # Write request sizes (log2)
system.mem_ctrls2.rdQLenPdf::0                 200734                       # What read queue length does an incoming req see
system.mem_ctrls2.rdQLenPdf::1                   1507                       # What read queue length does an incoming req see
system.mem_ctrls2.rdQLenPdf::2                   1313                       # What read queue length does an incoming req see
system.mem_ctrls2.rdQLenPdf::3                   1428                       # What read queue length does an incoming req see
system.mem_ctrls2.rdQLenPdf::4                   1581                       # What read queue length does an incoming req see
system.mem_ctrls2.rdQLenPdf::5                   1554                       # What read queue length does an incoming req see
system.mem_ctrls2.rdQLenPdf::6                   1590                       # What read queue length does an incoming req see
system.mem_ctrls2.rdQLenPdf::7                   1606                       # What read queue length does an incoming req see
system.mem_ctrls2.rdQLenPdf::8                   1566                       # What read queue length does an incoming req see
system.mem_ctrls2.rdQLenPdf::9                   1511                       # What read queue length does an incoming req see
system.mem_ctrls2.rdQLenPdf::10                  1404                       # What read queue length does an incoming req see
system.mem_ctrls2.rdQLenPdf::11                  1342                       # What read queue length does an incoming req see
system.mem_ctrls2.rdQLenPdf::12                  1315                       # What read queue length does an incoming req see
system.mem_ctrls2.rdQLenPdf::13                  1350                       # What read queue length does an incoming req see
system.mem_ctrls2.rdQLenPdf::14                  1339                       # What read queue length does an incoming req see
system.mem_ctrls2.rdQLenPdf::15                  1258                       # What read queue length does an incoming req see
system.mem_ctrls2.rdQLenPdf::16                  1244                       # What read queue length does an incoming req see
system.mem_ctrls2.rdQLenPdf::17                  1238                       # What read queue length does an incoming req see
system.mem_ctrls2.rdQLenPdf::18                  1259                       # What read queue length does an incoming req see
system.mem_ctrls2.rdQLenPdf::19                  1278                       # What read queue length does an incoming req see
system.mem_ctrls2.rdQLenPdf::20                  1250                       # What read queue length does an incoming req see
system.mem_ctrls2.rdQLenPdf::21                  1251                       # What read queue length does an incoming req see
system.mem_ctrls2.rdQLenPdf::22                  1222                       # What read queue length does an incoming req see
system.mem_ctrls2.rdQLenPdf::23                  1235                       # What read queue length does an incoming req see
system.mem_ctrls2.rdQLenPdf::24                  1238                       # What read queue length does an incoming req see
system.mem_ctrls2.rdQLenPdf::25                  1255                       # What read queue length does an incoming req see
system.mem_ctrls2.rdQLenPdf::26                  1334                       # What read queue length does an incoming req see
system.mem_ctrls2.rdQLenPdf::27                  1410                       # What read queue length does an incoming req see
system.mem_ctrls2.rdQLenPdf::28                  1624                       # What read queue length does an incoming req see
system.mem_ctrls2.rdQLenPdf::29                  2083                       # What read queue length does an incoming req see
system.mem_ctrls2.rdQLenPdf::30                  2897                       # What read queue length does an incoming req see
system.mem_ctrls2.rdQLenPdf::31                139012                       # What read queue length does an incoming req see
system.mem_ctrls2.wrQLenPdf::0                  46572                       # What write queue length does an incoming req see
system.mem_ctrls2.wrQLenPdf::1                  48515                       # What write queue length does an incoming req see
system.mem_ctrls2.wrQLenPdf::2                  49473                       # What write queue length does an incoming req see
system.mem_ctrls2.wrQLenPdf::3                  50471                       # What write queue length does an incoming req see
system.mem_ctrls2.wrQLenPdf::4                  52168                       # What write queue length does an incoming req see
system.mem_ctrls2.wrQLenPdf::5                  16341                       # What write queue length does an incoming req see
system.mem_ctrls2.wrQLenPdf::6                  20917                       # What write queue length does an incoming req see
system.mem_ctrls2.wrQLenPdf::7                  38286                       # What write queue length does an incoming req see
system.mem_ctrls2.bytesPerActivate::samples       217954                       # Bytes accessed per row activation
system.mem_ctrls2.bytesPerActivate::mean   207.297760                       # Bytes accessed per row activation
system.mem_ctrls2.bytesPerActivate::gmean   163.637568                       # Bytes accessed per row activation
system.mem_ctrls2.bytesPerActivate::stdev   145.648355                       # Bytes accessed per row activation
system.mem_ctrls2.bytesPerActivate::0-127        60698     27.85%     27.85% # Bytes accessed per row activation
system.mem_ctrls2.bytesPerActivate::128-255        67119     30.80%     58.64% # Bytes accessed per row activation
system.mem_ctrls2.bytesPerActivate::256-383        71462     32.79%     91.43% # Bytes accessed per row activation
system.mem_ctrls2.bytesPerActivate::384-511         9096      4.17%     95.61% # Bytes accessed per row activation
system.mem_ctrls2.bytesPerActivate::512-639         5510      2.53%     98.13% # Bytes accessed per row activation
system.mem_ctrls2.bytesPerActivate::640-767         1769      0.81%     98.94% # Bytes accessed per row activation
system.mem_ctrls2.bytesPerActivate::768-895          831      0.38%     99.33% # Bytes accessed per row activation
system.mem_ctrls2.bytesPerActivate::896-1023          627      0.29%     99.61% # Bytes accessed per row activation
system.mem_ctrls2.bytesPerActivate::1024-1151          842      0.39%    100.00% # Bytes accessed per row activation
system.mem_ctrls2.bytesPerActivate::total       217954                       # Bytes accessed per row activation
system.mem_ctrls2.rdPerTurnAround::samples        48078                       # Reads before turning the bus around for writes
system.mem_ctrls2.rdPerTurnAround::mean      7.970922                       # Reads before turning the bus around for writes
system.mem_ctrls2.rdPerTurnAround::stdev    15.700455                       # Reads before turning the bus around for writes
system.mem_ctrls2.rdPerTurnAround::0-127        48072     99.99%     99.99% # Reads before turning the bus around for writes
system.mem_ctrls2.rdPerTurnAround::128-255            4      0.01%    100.00% # Reads before turning the bus around for writes
system.mem_ctrls2.rdPerTurnAround::1152-1279            1      0.00%    100.00% # Reads before turning the bus around for writes
system.mem_ctrls2.rdPerTurnAround::2816-2943            1      0.00%    100.00% # Reads before turning the bus around for writes
system.mem_ctrls2.rdPerTurnAround::total        48078                       # Reads before turning the bus around for writes
system.mem_ctrls2.wrPerTurnAround::samples        48078                       # Writes before turning the bus around for reads
system.mem_ctrls2.wrPerTurnAround::mean      6.712862                       # Writes before turning the bus around for reads
system.mem_ctrls2.wrPerTurnAround::gmean     6.092827                       # Writes before turning the bus around for reads
system.mem_ctrls2.wrPerTurnAround::stdev     3.548554                       # Writes before turning the bus around for reads
system.mem_ctrls2.wrPerTurnAround::4-7          38509     80.10%     80.10% # Writes before turning the bus around for reads
system.mem_ctrls2.wrPerTurnAround::8-11          1887      3.92%     84.02% # Writes before turning the bus around for reads
system.mem_ctrls2.wrPerTurnAround::12-15         5037     10.48%     94.50% # Writes before turning the bus around for reads
system.mem_ctrls2.wrPerTurnAround::16-19         2645      5.50%    100.00% # Writes before turning the bus around for reads
system.mem_ctrls2.wrPerTurnAround::total        48078                       # Writes before turning the bus around for reads
system.mem_ctrls2.totQLat                 64036839381                       # Total ticks spent queuing
system.mem_ctrls2.totMemAccLat            71222364381                       # Total ticks spent from burst creation until serviced by the DRAM
system.mem_ctrls2.totBusLat                1916140000                       # Total ticks spent in databus transfers
system.mem_ctrls2.avgQLat                   167098.54                       # Average queueing delay per DRAM burst
system.mem_ctrls2.avgBusLat                   5000.00                       # Average bus latency per DRAM burst
system.mem_ctrls2.avgMemAccLat              185848.54                       # Average memory access latency per DRAM burst
system.mem_ctrls2.avgRdBW                      159.40                       # Average DRAM read bandwidth in MiByte/s
system.mem_ctrls2.avgWrBW                      134.24                       # Average achieved write bandwidth in MiByte/s
system.mem_ctrls2.avgRdBWSys                   159.41                       # Average system read bandwidth in MiByte/s
system.mem_ctrls2.avgWrBWSys                   134.24                       # Average system write bandwidth in MiByte/s
system.mem_ctrls2.peakBW                     12800.00                       # Theoretical peak bandwidth in MiByte/s
system.mem_ctrls2.busUtil                        2.29                       # Data bus utilization in percentage
system.mem_ctrls2.busUtilRead                    1.25                       # Data bus utilization in percentage for reads
system.mem_ctrls2.busUtilWrite                   1.05                       # Data bus utilization in percentage for writes
system.mem_ctrls2.avgRdQLen                      1.42                       # Average read queue length when enqueuing
system.mem_ctrls2.avgWrQLen                      3.02                       # Average write queue length when enqueuing
system.mem_ctrls2.readRowHits                  277458                       # Number of row buffer hits during reads
system.mem_ctrls2.writeRowHits                 210547                       # Number of row buffer hits during writes
system.mem_ctrls2.readRowHitRate                72.40                       # Row buffer hit rate for reads
system.mem_ctrls2.writeRowHitRate               65.24                       # Row buffer hit rate for writes
system.mem_ctrls2.avgGap                    217947.78                       # Average gap between requests
system.mem_ctrls2.pageHitRate                   69.13                       # Row buffer hit rate, read and write combined
system.mem_ctrls2.memoryStateTime::IDLE   27138611750                       # Time in different power states
system.mem_ctrls2.memoryStateTime::REF     5137860000                       # Time in different power states
system.mem_ctrls2.memoryStateTime::PRE_PDN            0                       # Time in different power states
system.mem_ctrls2.memoryStateTime::ACT   121587888250                       # Time in different power states
system.mem_ctrls2.memoryStateTime::ACT_PDN            0                       # Time in different power states
system.mem_ctrls2.actEnergy::0              830791080                       # Energy for activate commands per rank (pJ)
system.mem_ctrls2.actEnergy::1              816774840                       # Energy for activate commands per rank (pJ)
system.mem_ctrls2.preEnergy::0              453308625                       # Energy for precharge commands per rank (pJ)
system.mem_ctrls2.preEnergy::1              445660875                       # Energy for precharge commands per rank (pJ)
system.mem_ctrls2.readEnergy::0            1502241000                       # Energy for read commands per rank (pJ)
system.mem_ctrls2.readEnergy::1            1486641000                       # Energy for read commands per rank (pJ)
system.mem_ctrls2.writeEnergy::0           1047952080                       # Energy for write commands per rank (pJ)
system.mem_ctrls2.writeEnergy::1           1043202240                       # Energy for write commands per rank (pJ)
system.mem_ctrls2.refreshEnergy::0        10049654160                       # Energy for refresh commands per rank (pJ)
system.mem_ctrls2.refreshEnergy::1        10049654160                       # Energy for refresh commands per rank (pJ)
system.mem_ctrls2.actBackEnergy::0        59695092810                       # Energy for active background per rank (pJ)
system.mem_ctrls2.actBackEnergy::1        59231662290                       # Energy for active background per rank (pJ)
system.mem_ctrls2.preBackEnergy::0        39954491250                       # Energy for precharge background per rank (pJ)
system.mem_ctrls2.preBackEnergy::1        40361009250                       # Energy for precharge background per rank (pJ)
system.mem_ctrls2.totalEnergy::0         113533531005                       # Total energy per rank (pJ)
system.mem_ctrls2.totalEnergy::1         113434604655                       # Total energy per rank (pJ)
system.mem_ctrls2.averagePower::0          737.880697                       # Core power per rank (mW)
system.mem_ctrls2.averagePower::1          737.237751                       # Core power per rank (mW)
system.mem_ctrls3.bytes_read::ruby.dir_cntrl3     24507584                       # Number of bytes read from this memory
system.mem_ctrls3.bytes_read::total          24507584                       # Number of bytes read from this memory
system.mem_ctrls3.bytes_written::ruby.dir_cntrl3     20653504                       # Number of bytes written to this memory
system.mem_ctrls3.bytes_written::total       20653504                       # Number of bytes written to this memory
system.mem_ctrls3.num_reads::ruby.dir_cntrl3       382931                       # Number of read requests responded to by this memory
system.mem_ctrls3.num_reads::total             382931                       # Number of read requests responded to by this memory
system.mem_ctrls3.num_writes::ruby.dir_cntrl3       322711                       # Number of write requests responded to by this memory
system.mem_ctrls3.num_writes::total            322711                       # Number of write requests responded to by this memory
system.mem_ctrls3.bw_read::ruby.dir_cntrl3    159274948                       # Total read bandwidth from this memory (bytes/s)
system.mem_ctrls3.bw_read::total            159274948                       # Total read bandwidth from this memory (bytes/s)
system.mem_ctrls3.bw_write::ruby.dir_cntrl3    134227257                       # Write bandwidth from this memory (bytes/s)
system.mem_ctrls3.bw_write::total           134227257                       # Write bandwidth from this memory (bytes/s)
system.mem_ctrls3.bw_total::ruby.dir_cntrl3    293502205                       # Total bandwidth to/from this memory (bytes/s)
system.mem_ctrls3.bw_total::total           293502205                       # Total bandwidth to/from this memory (bytes/s)
system.mem_ctrls3.readReqs                     382931                       # Number of read requests accepted
system.mem_ctrls3.writeReqs                    322711                       # Number of write requests accepted
system.mem_ctrls3.readBursts                   382931                       # Number of DRAM read bursts, including those serviced by the write queue
system.mem_ctrls3.writeBursts                  322711                       # Number of DRAM write bursts, including those merged in the write queue
system.mem_ctrls3.bytesReadDRAM              24506944                       # Total number of bytes read from DRAM
system.mem_ctrls3.bytesReadWrQ                    640                       # Total number of bytes read from write queue
system.mem_ctrls3.bytesWritten               20653376                       # Total number of bytes written to DRAM
system.mem_ctrls3.bytesReadSys               24507584                       # Total read bytes from the system interface side
system.mem_ctrls3.bytesWrittenSys            20653504                       # Total written bytes from the system interface side
system.mem_ctrls3.servicedByWrQ                    10                       # Number of DRAM read bursts serviced by the write queue
system.mem_ctrls3.mergedWrBursts                    0                       # Number of DRAM write bursts merged with an existing one
system.mem_ctrls3.neitherReadNorWriteReqs            0                       # Number of requests that are neither read nor write
system.mem_ctrls3.perBankRdBursts::0            23629                       # Per bank write bursts
system.mem_ctrls3.perBankRdBursts::1            24326                       # Per bank write bursts
system.mem_ctrls3.perBankRdBursts::2            23837                       # Per bank write bursts
system.mem_ctrls3.perBankRdBursts::3            24239                       # Per bank write bursts
system.mem_ctrls3.perBankRdBursts::4            23815                       # Per bank write bursts
system.mem_ctrls3.perBankRdBursts::5            24211                       # Per bank write bursts
system.mem_ctrls3.perBankRdBursts::6            24293                       # Per bank write bursts
system.mem_ctrls3.perBankRdBursts::7            24032                       # Per bank write bursts
system.mem_ctrls3.perBankRdBursts::8            23882                       # Per bank write bursts
system.mem_ctrls3.perBankRdBursts::9            24033                       # Per bank write bursts
system.mem_ctrls3.perBankRdBursts::10           23904                       # Per bank write bursts
system.mem_ctrls3.perBankRdBursts::11           24328                       # Per bank write bursts
system.mem_ctrls3.perBankRdBursts::12           23558                       # Per bank write bursts
system.mem_ctrls3.perBankRdBursts::13           23453                       # Per bank write bursts
system.mem_ctrls3.perBankRdBursts::14           23607                       # Per bank write bursts
system.mem_ctrls3.perBankRdBursts::15           23774                       # Per bank write bursts
system.mem_ctrls3.perBankWrBursts::0            20196                       # Per bank write bursts
system.mem_ctrls3.perBankWrBursts::1            20117                       # Per bank write bursts
system.mem_ctrls3.perBankWrBursts::2            20081                       # Per bank write bursts
system.mem_ctrls3.perBankWrBursts::3            20349                       # Per bank write bursts
system.mem_ctrls3.perBankWrBursts::4            19990                       # Per bank write bursts
system.mem_ctrls3.perBankWrBursts::5            20342                       # Per bank write bursts
system.mem_ctrls3.perBankWrBursts::6            20392                       # Per bank write bursts
system.mem_ctrls3.perBankWrBursts::7            20239                       # Per bank write bursts
system.mem_ctrls3.perBankWrBursts::8            20387                       # Per bank write bursts
system.mem_ctrls3.perBankWrBursts::9            20134                       # Per bank write bursts
system.mem_ctrls3.perBankWrBursts::10           20113                       # Per bank write bursts
system.mem_ctrls3.perBankWrBursts::11           20180                       # Per bank write bursts
system.mem_ctrls3.perBankWrBursts::12           19913                       # Per bank write bursts
system.mem_ctrls3.perBankWrBursts::13           20138                       # Per bank write bursts
system.mem_ctrls3.perBankWrBursts::14           20102                       # Per bank write bursts
system.mem_ctrls3.perBankWrBursts::15           20036                       # Per bank write bursts
system.mem_ctrls3.numRdRetry                   135158                       # Number of times read queue was full causing retry
system.mem_ctrls3.numWrRetry                    18437                       # Number of times write queue was full causing retry
system.mem_ctrls3.totGap                 153868556000                       # Total gap between requests
system.mem_ctrls3.readPktSize::0                    0                       # Read request sizes (log2)
system.mem_ctrls3.readPktSize::1                    0                       # Read request sizes (log2)
system.mem_ctrls3.readPktSize::2                    0                       # Read request sizes (log2)
system.mem_ctrls3.readPktSize::3                    0                       # Read request sizes (log2)
system.mem_ctrls3.readPktSize::4                    0                       # Read request sizes (log2)
system.mem_ctrls3.readPktSize::5                    0                       # Read request sizes (log2)
system.mem_ctrls3.readPktSize::6               382931                       # Read request sizes (log2)
system.mem_ctrls3.writePktSize::0                   0                       # Write request sizes (log2)
system.mem_ctrls3.writePktSize::1                   0                       # Write request sizes (log2)
system.mem_ctrls3.writePktSize::2                   0                       # Write request sizes (log2)
system.mem_ctrls3.writePktSize::3                   0                       # Write request sizes (log2)
system.mem_ctrls3.writePktSize::4                   0                       # Write request sizes (log2)
system.mem_ctrls3.writePktSize::5                   0                       # Write request sizes (log2)
system.mem_ctrls3.writePktSize::6              322711                       # Write request sizes (log2)
system.mem_ctrls3.rdQLenPdf::0                 200370                       # What read queue length does an incoming req see
system.mem_ctrls3.rdQLenPdf::1                   1573                       # What read queue length does an incoming req see
system.mem_ctrls3.rdQLenPdf::2                   1208                       # What read queue length does an incoming req see
system.mem_ctrls3.rdQLenPdf::3                   1262                       # What read queue length does an incoming req see
system.mem_ctrls3.rdQLenPdf::4                   1330                       # What read queue length does an incoming req see
system.mem_ctrls3.rdQLenPdf::5                   1433                       # What read queue length does an incoming req see
system.mem_ctrls3.rdQLenPdf::6                   1511                       # What read queue length does an incoming req see
system.mem_ctrls3.rdQLenPdf::7                   1544                       # What read queue length does an incoming req see
system.mem_ctrls3.rdQLenPdf::8                   1507                       # What read queue length does an incoming req see
system.mem_ctrls3.rdQLenPdf::9                   1460                       # What read queue length does an incoming req see
system.mem_ctrls3.rdQLenPdf::10                  1409                       # What read queue length does an incoming req see
system.mem_ctrls3.rdQLenPdf::11                  1334                       # What read queue length does an incoming req see
system.mem_ctrls3.rdQLenPdf::12                  1373                       # What read queue length does an incoming req see
system.mem_ctrls3.rdQLenPdf::13                  1345                       # What read queue length does an incoming req see
system.mem_ctrls3.rdQLenPdf::14                  1284                       # What read queue length does an incoming req see
system.mem_ctrls3.rdQLenPdf::15                  1222                       # What read queue length does an incoming req see
system.mem_ctrls3.rdQLenPdf::16                  1184                       # What read queue length does an incoming req see
system.mem_ctrls3.rdQLenPdf::17                  1186                       # What read queue length does an incoming req see
system.mem_ctrls3.rdQLenPdf::18                  1202                       # What read queue length does an incoming req see
system.mem_ctrls3.rdQLenPdf::19                  1180                       # What read queue length does an incoming req see
system.mem_ctrls3.rdQLenPdf::20                  1204                       # What read queue length does an incoming req see
system.mem_ctrls3.rdQLenPdf::21                  1201                       # What read queue length does an incoming req see
system.mem_ctrls3.rdQLenPdf::22                  1235                       # What read queue length does an incoming req see
system.mem_ctrls3.rdQLenPdf::23                  1235                       # What read queue length does an incoming req see
system.mem_ctrls3.rdQLenPdf::24                  1258                       # What read queue length does an incoming req see
[...]
system.ruby.L2Cache_Controller.S_I.Ack::total            2                      
system.ruby.L2Cache_Controller.S_I.Ack_all |           0      0.00%      0.00% |           4     28.57%     28.57% |           1      7.14%     35.71% |           1      7.14%     42.86% |           0      0.00%     42.86% |           2     14.29%     57.14% |           0      0.00%     57.14% |           0      0.00%     57.14% |           0      0.00%     57.14% |           1      7.14%     64.29% |           1      7.14%     71.43% |           0      0.00%     71.43% |           0      0.00%     71.43% |           0      0.00%     71.43% |           1      7.14%     78.57% |           0      0.00%     78.57% |           0      0.00%     78.57% |           0      0.00%     78.57% |           1      7.14%     85.71% |           0      0.00%     85.71% |           0      0.00%     85.71% |           0      0.00%     85.71% |           0      0.00%     85.71% |           0      0.00%     85.71% |           1      7.14%     92.86% |           0      0.00%     92.86% |           0      0.00%     92.86% |           0      0.00%     92.86% |           1      7.14%    100.00% |           0      0.00%    100.00% |           0      0.00%    100.00% |           0      0.00%    100.00%
system.ruby.L2Cache_Controller.S_I.Ack_all::total           14                      
system.ruby.L2Cache_Controller.ISS.Mem_Data |       19165      8.08%      8.08% |        7114      3.00%     11.07% |        7113      3.00%     14.07% |        7064      2.98%     17.05% |        7032      2.96%     20.01% |        7011      2.95%     22.97% |        7025      2.96%     25.93% |        7026      2.96%     28.89% |        7067      2.98%     31.87% |        7067      2.98%     34.84% |        7103      2.99%     37.84% |        7026      2.96%     40.80% |        7036      2.96%     43.76% |        7032      2.96%     46.73% |        7035      2.96%     49.69% |        6997      2.95%     52.64% |        7038      2.97%     55.60% |        7008      2.95%     58.56% |        7047      2.97%     61.53% |        7023      2.96%     64.49% |        7019      2.96%     67.44% |        7004      2.95%     70.40% |        7023      2.96%     73.36% |        7018      2.96%     76.31% |        7040      2.97%     79.28% |        7037      2.97%     82.25% |        7021      2.96%     85.20% |        6997      2.95%     88.15% |        7042      2.97%     91.12% |        7023      2.96%     94.08% |        6998      2.95%     97.03% |        7051      2.97%    100.00%
system.ruby.L2Cache_Controller.ISS.Mem_Data::total       237302                      
system.ruby.L2Cache_Controller.IS.Mem_Data |         542      3.26%      3.26% |         471      2.83%      6.10% |         465      2.80%      8.90% |         465      2.80%     11.69% |         511      3.08%     14.77% |         466      2.80%     17.57% |         504      3.03%     20.61% |         529      3.18%     23.79% |         547      3.29%     27.08% |         487      2.93%     30.01% |         533      3.21%     33.22% |         566      3.41%     36.63% |         618      3.72%     40.35% |         561      3.38%     43.72% |         579      3.48%     47.21% |         523      3.15%     50.36% |         532      3.20%     53.56% |         569      3.42%     56.98% |         562      3.38%     60.36% |         510      3.07%     63.43% |         505      3.04%     66.47% |         520      3.13%     69.60% |         480      2.89%     72.49% |         468      2.82%     75.31% |         546      3.29%     78.59% |         592      3.56%     82.16% |         532      3.20%     85.36% |         479      2.88%     88.24% |         489      2.94%     91.18% |         510      3.07%     94.25% |         490      2.95%     97.20% |         465      2.80%    100.00%
system.ruby.L2Cache_Controller.IS.Mem_Data::total        16616                      
system.ruby.L2Cache_Controller.IM.L1_GETX |           2    100.00%    100.00% |           0      0.00%    100.00% |           0      0.00%    100.00% |           0      0.00%    100.00% |           0      0.00%    100.00% |           0      0.00%    100.00% |           0      0.00%    100.00% |           0      0.00%    100.00% |           0      0.00%    100.00% |           0      0.00%    100.00% |           0      0.00%    100.00% |           0      0.00%    100.00% |           0      0.00%    100.00% |           0      0.00%    100.00% |           0      0.00%    100.00% |           0      0.00%    100.00% |           0      0.00%    100.00% |           0      0.00%    100.00% |           0      0.00%    100.00% |           0      0.00%    100.00% |           0      0.00%    100.00% |           0      0.00%    100.00% |           0      0.00%    100.00% |           0      0.00%    100.00% |           0      0.00%    100.00% |           0      0.00%    100.00% |           0      0.00%    100.00% |           0      0.00%    100.00% |           0      0.00%    100.00% |           0      0.00%    100.00% |           0      0.00%    100.00% |           0      0.00%    100.00%
system.ruby.L2Cache_Controller.IM.L1_GETX::total            2                      
system.ruby.L2Cache_Controller.IM.Mem_Data |       40859      3.16%      3.16% |       40329      3.12%      6.29% |       40341      3.12%      9.41% |       40347      3.12%     12.53% |       40353      3.12%     15.66% |       40362      3.13%     18.78% |       40339      3.12%     21.91% |       40336      3.12%     25.03% |       40349      3.12%     28.15% |       40344      3.12%     31.28% |       40329      3.12%     34.40% |       40358      3.12%     37.53% |       40339      3.12%     40.65% |       40338      3.12%     43.77% |       40341      3.12%     46.90% |       40330      3.12%     50.02% |       40353      3.12%     53.14% |       40351      3.12%     56.27% |       40349      3.12%     59.39% |       40345      3.12%     62.52% |       40340      3.12%     65.64% |       40354      3.12%     68.76% |       40339      3.12%     71.89% |       40341      3.12%     75.01% |       40348      3.12%     78.14% |       40345      3.12%     81.26% |       40349      3.12%     84.38% |       40336      3.12%     87.51% |       40336      3.12%     90.63% |       40337      3.12%     93.75% |       40349      3.12%     96.88% |       40331      3.12%    100.00%
system.ruby.L2Cache_Controller.IM.Mem_Data::total      1291497                      
system.ruby.L2Cache_Controller.SS_MB.Exclusive_Unblock |           4      8.89%      8.89% |           6     13.33%     22.22% |           2      4.44%     26.67% |           6     13.33%     40.00% |           1      2.22%     42.22% |           0      0.00%     42.22% |           1      2.22%     44.44% |           0      0.00%     44.44% |           0      0.00%     44.44% |           1      2.22%     46.67% |           1      2.22%     48.89% |           0      0.00%     48.89% |           4      8.89%     57.78% |           0      0.00%     57.78% |           3      6.67%     64.44% |           0      0.00%     64.44% |           0      0.00%     64.44% |           0      0.00%     64.44% |           9     20.00%     84.44% |           0      0.00%     84.44% |           0      0.00%     84.44% |           0      0.00%     84.44% |           0      0.00%     84.44% |           0      0.00%     84.44% |           1      2.22%     86.67% |           2      4.44%     91.11% |           1      2.22%     93.33% |           1      2.22%     95.56% |           0      0.00%     95.56% |           1      2.22%     97.78% |           1      2.22%    100.00% |           0      0.00%    100.00%
system.ruby.L2Cache_Controller.SS_MB.Exclusive_Unblock::total           45                      
system.ruby.L2Cache_Controller.MT_MB.L1_PUTX |           2    100.00%    100.00% |           0      0.00%    100.00% |           0      0.00%    100.00% |           0      0.00%    100.00% |           0      0.00%    100.00% |           0      0.00%    100.00% |           0      0.00%    100.00% |           0      0.00%    100.00% |           0      0.00%    100.00% |           0      0.00%    100.00% |           0      0.00%    100.00% |           0      0.00%    100.00% |           0      0.00%    100.00% |           0      0.00%    100.00% |           0      0.00%    100.00% |           0      0.00%    100.00% |           0      0.00%    100.00% |           0      0.00%    100.00% |           0      0.00%    100.00% |           0      0.00%    100.00% |           0      0.00%    100.00% |           0      0.00%    100.00% |           0      0.00%    100.00% |           0      0.00%    100.00% |           0      0.00%    100.00% |           0      0.00%    100.00% |           0      0.00%    100.00% |           0      0.00%    100.00% |           0      0.00%    100.00% |           0      0.00%    100.00% |           0      0.00%    100.00% |           0      0.00%    100.00%
system.ruby.L2Cache_Controller.MT_MB.L1_PUTX::total            2                      
system.ruby.L2Cache_Controller.MT_MB.Exclusive_Unblock |      172942      8.47%      8.47% |       64312      3.15%     11.62% |       58809      2.88%     14.50% |       58501      2.87%     17.36% |       57845      2.83%     20.20% |       56547      2.77%     22.97% |       55050      2.70%     25.66% |       55349      2.71%     28.37% |       58875      2.88%     31.26% |       57766      2.83%     34.09% |       60706      2.97%     37.06% |       60258      2.95%     40.01% |       56910      2.79%     42.80% |       56838      2.78%     45.58% |       56497      2.77%     48.35% |       56913      2.79%     51.14% |       58936      2.89%     54.02% |       58559      2.87%     56.89% |       59937      2.94%     59.83% |       60922      2.98%     62.81% |       60961      2.99%     65.79% |       63144      3.09%     68.89% |       64370      3.15%     72.04% |       60597      2.97%     75.01% |       61055      2.99%     78.00% |       62515      3.06%     81.06% |       60846      2.98%     84.04% |       61467      3.01%     87.05% |       64139      3.14%     90.19% |       61960      3.03%     93.23% |       70076      3.43%     96.66% |       68256      3.34%    100.00%
system.ruby.L2Cache_Controller.MT_MB.Exclusive_Unblock::total      2041858                      
system.ruby.L2Cache_Controller.MT_IIB.WB_Data |           0      0.00%      0.00% |           0      0.00%      0.00% |           0      0.00%      0.00% |           0      0.00%      0.00% |           0      0.00%      0.00% |           1     50.00%     50.00% |           0      0.00%     50.00% |           0      0.00%     50.00% |           0      0.00%     50.00% |           0      0.00%     50.00% |           0      0.00%     50.00% |           0      0.00%     50.00% |           0      0.00%     50.00% |           0      0.00%     50.00% |           0      0.00%     50.00% |           0      0.00%     50.00% |           0      0.00%     50.00% |           0      0.00%     50.00% |           0      0.00%     50.00% |           0      0.00%     50.00% |           0      0.00%     50.00% |           0      0.00%     50.00% |           0      0.00%     50.00% |           0      0.00%     50.00% |           0      0.00%     50.00% |           0      0.00%     50.00% |           0      0.00%     50.00% |           0      0.00%     50.00% |           1     50.00%    100.00% |           0      0.00%    100.00% |           0      0.00%    100.00% |           0      0.00%    100.00%
system.ruby.L2Cache_Controller.MT_IIB.WB_Data::total            2                      
system.ruby.L2Cache_Controller.MT_IIB.WB_Data_clean |           6    100.00%    100.00% |           0      0.00%    100.00% |           0      0.00%    100.00% |           0      0.00%    100.00% |           0      0.00%    100.00% |           0      0.00%    100.00% |           0      0.00%    100.00% |           0      0.00%    100.00% |           0      0.00%    100.00% |           0      0.00%    100.00% |           0      0.00%    100.00% |           0      0.00%    100.00% |           0      0.00%    100.00% |           0      0.00%    100.00% |           0      0.00%    100.00% |           0      0.00%    100.00% |           0      0.00%    100.00% |           0      0.00%    100.00% |           0      0.00%    100.00% |           0      0.00%    100.00% |           0      0.00%    100.00% |           0      0.00%    100.00% |           0      0.00%    100.00% |           0      0.00%    100.00% |           0      0.00%    100.00% |           0      0.00%    100.00% |           0      0.00%    100.00% |           0      0.00%    100.00% |           0      0.00%    100.00% |           0      0.00%    100.00% |           0      0.00%    100.00% |           0      0.00%    100.00%
system.ruby.L2Cache_Controller.MT_IIB.WB_Data_clean::total            6                      
system.ruby.L2Cache_Controller.MT_SB.Unblock |           6     75.00%     75.00% |           0      0.00%     75.00% |           0      0.00%     75.00% |           0      0.00%     75.00% |           0      0.00%     75.00% |           1     12.50%     87.50% |           0      0.00%     87.50% |           0      0.00%     87.50% |           0      0.00%     87.50% |           0      0.00%     87.50% |           0      0.00%     87.50% |           0      0.00%     87.50% |           0      0.00%     87.50% |           0      0.00%     87.50% |           0      0.00%     87.50% |           0      0.00%     87.50% |           0      0.00%     87.50% |           0      0.00%     87.50% |           0      0.00%     87.50% |           0      0.00%     87.50% |           0      0.00%     87.50% |           0      0.00%     87.50% |           0      0.00%     87.50% |           0      0.00%     87.50% |           0      0.00%     87.50% |           0      0.00%     87.50% |           0      0.00%     87.50% |           0      0.00%     87.50% |           1     12.50%    100.00% |           0      0.00%    100.00% |           0      0.00%    100.00% |           0      0.00%    100.00%
system.ruby.L2Cache_Controller.MT_SB.Unblock::total            8                      
system.ruby.SimicsNetworkPortInterface_Controller.MessageSend |      130337     21.98%     21.98% |      296481     50.00%     71.98% |        5377      0.91%     72.89% |        7008      1.18%     74.07% |        5468      0.92%     74.99% |        6283      1.06%     76.05% |        5270      0.89%     76.94% |        6416      1.08%     78.02% |        5071      0.86%     78.88% |        5790      0.98%     79.85% |        5566      0.94%     80.79% |        5846      0.99%     81.78% |        6558      1.11%     82.88% |        5146      0.87%     83.75% |        4803      0.81%     84.56% |        5141      0.87%     85.43% |        6298      1.06%     86.49% |        6031      1.02%     87.51% |        5197      0.88%     88.38% |        5058      0.85%     89.24% |        4938      0.83%     90.07% |        5743      0.97%     91.04% |        4965      0.84%     91.88% |        4758      0.80%     92.68% |        5657      0.95%     93.63% |        5211      0.88%     94.51% |        5034      0.85%     95.36% |        5104      0.86%     96.22% |        5263      0.89%     97.11% |        5285      0.89%     98.00% |        5906      1.00%     99.00% |        5953      1.00%    100.00%
system.ruby.SimicsNetworkPortInterface_Controller.MessageSend::total       592962                      
system.ruby.SimicsNetworkPortInterface_Controller.MessageRecv |      130337     21.98%     21.98% |      296481     50.00%     71.98% |        5377      0.91%     72.89% |        7008      1.18%     74.07% |        5468      0.92%     74.99% |        6283      1.06%     76.05% |        5270      0.89%     76.94% |        6416      1.08%     78.02% |        5071      0.86%     78.88% |        5790      0.98%     79.85% |        5566      0.94%     80.79% |        5846      0.99%     81.78% |        6558      1.11%     82.88% |        5146      0.87%     83.75% |        4803      0.81%     84.56% |        5141      0.87%     85.43% |        6298      1.06%     86.49% |        6031      1.02%     87.51% |        5197      0.88%     88.38% |        5058      0.85%     89.24% |        4938      0.83%     90.07% |        5743      0.97%     91.04% |        4965      0.84%     91.88% |        4758      0.80%     92.68% |        5657      0.95%     93.63% |        5211      0.88%     94.51% |        5034      0.85%     95.36% |        5104      0.86%     96.22% |        5263      0.89%     97.11% |        5285      0.89%     98.00% |        5906      1.00%     99.00% |        5953      1.00%    100.00%
system.ruby.SimicsNetworkPortInterface_Controller.MessageRecv::total       592962                      
system.ruby.SimicsNetworkPortInterface_Controller.A.MessageSend |      130337     21.98%     21.98% |      296481     50.00%     71.98% |        5377      0.91%     72.89% |        7008      1.18%     74.07% |        5468      0.92%     74.99% |        6283      1.06%     76.05% |        5270      0.89%     76.94% |        6416      1.08%     78.02% |        5071      0.86%     78.88% |        5790      0.98%     79.85% |        5566      0.94%     80.79% |        5846      0.99%     81.78% |        6558      1.11%     82.88% |        5146      0.87%     83.75% |        4803      0.81%     84.56% |        5141      0.87%     85.43% |        6298      1.06%     86.49% |        6031      1.02%     87.51% |        5197      0.88%     88.38% |        5058      0.85%     89.24% |        4938      0.83%     90.07% |        5743      0.97%     91.04% |        4965      0.84%     91.88% |        4758      0.80%     92.68% |        5657      0.95%     93.63% |        5211      0.88%     94.51% |        5034      0.85%     95.36% |        5104      0.86%     96.22% |        5263      0.89%     97.11% |        5285      0.89%     98.00% |        5906      1.00%     99.00% |        5953      1.00%    100.00%
system.ruby.SimicsNetworkPortInterface_Controller.A.MessageSend::total       592962                      
system.ruby.SimicsNetworkPortInterface_Controller.A.MessageRecv |      130337     21.98%     21.98% |      296481     50.00%     71.98% |        5377      0.91%     72.89% |        7008      1.18%     74.07% |        5468      0.92%     74.99% |        6283      1.06%     76.05% |        5270      0.89%     76.94% |        6416      1.08%     78.02% |        5071      0.86%     78.88% |        5790      0.98%     79.85% |        5566      0.94%     80.79% |        5846      0.99%     81.78% |        6558      1.11%     82.88% |        5146      0.87%     83.75% |        4803      0.81%     84.56% |        5141      0.87%     85.43% |        6298      1.06%     86.49% |        6031      1.02%     87.51% |        5197      0.88%     88.38% |        5058      0.85%     89.24% |        4938      0.83%     90.07% |        5743      0.97%     91.04% |        4965      0.84%     91.88% |        4758      0.80%     92.68% |        5657      0.95%     93.63% |        5211      0.88%     94.51% |        5034      0.85%     95.36% |        5104      0.86%     96.22% |        5263      0.89%     97.11% |        5285      0.89%     98.00% |        5906      1.00%     99.00% |        5953      1.00%    100.00%
system.ruby.SimicsNetworkPortInterface_Controller.A.MessageRecv::total       592962                      
system.switch_cpus.kern.inst.arm                    0                       # number of arm instructions executed
system.switch_cpus.kern.inst.quiesce                0                       # number of quiesce instructions executed

---------- End Simulation Statistics   ----------
