
---------- Begin Simulation Statistics ----------
sim_seconds                                  0.131443                       # Number of seconds simulated
sim_ticks                                131443303500                       # Number of ticks simulated
final_tick                               5307611382000                       # Number of ticks from beginning of simulation (restored from checkpoints and never reset)
sim_freq                                 1000000000000                       # Frequency of simulated ticks
host_inst_rate                                  69886                       # Simulator instruction rate (inst/s)
host_op_rate                                   120393                       # Simulator op (including micro ops) rate (op/s)
host_tick_rate                              210469159                       # Simulator tick rate (ticks/s)
host_mem_usage                                4259292                       # Number of bytes of host memory used
host_seconds                                   624.53                       # Real time elapsed on the host
sim_insts                                    43645829                       # Number of instructions simulated
sim_ops                                      75188363                       # Number of ops (including micro ops) simulated
system.voltage_domain.voltage                       1                       # Voltage in Volts
system.clk_domain.clock                           500                       # Clock period in ticks
system.mem_ctrls0.bytes_read::ruby.dir_cntrl0     21448064                       # Number of bytes read from this memory
system.mem_ctrls0.bytes_read::total          21448064                       # Number of bytes read from this memory
system.mem_ctrls0.bytes_written::ruby.dir_cntrl0     13541376                       # Number of bytes written to this memory
system.mem_ctrls0.bytes_written::total       13541376                       # Number of bytes written to this memory
system.mem_ctrls0.num_reads::ruby.dir_cntrl0       335126                       # Number of read requests responded to by this memory
system.mem_ctrls0.num_reads::total             335126                       # Number of read requests responded to by this memory
system.mem_ctrls0.num_writes::ruby.dir_cntrl0       211584                       # Number of write requests responded to by this memory
system.mem_ctrls0.num_writes::total            211584                       # Number of write requests responded to by this memory
system.mem_ctrls0.bw_read::ruby.dir_cntrl0    163173501                       # Total read bandwidth from this memory (bytes/s)
system.mem_ctrls0.bw_read::total            163173501                       # Total read bandwidth from this memory (bytes/s)
system.mem_ctrls0.bw_write::ruby.dir_cntrl0    103020661                       # Write bandwidth from this memory (bytes/s)
system.mem_ctrls0.bw_write::total           103020661                       # Write bandwidth from this memory (bytes/s)
system.mem_ctrls0.bw_total::ruby.dir_cntrl0    266194162                       # Total bandwidth to/from this memory (bytes/s)
system.mem_ctrls0.bw_total::total           266194162                       # Total bandwidth to/from this memory (bytes/s)
system.mem_ctrls0.readReqs                     335126                       # Number of read requests accepted
system.mem_ctrls0.writeReqs                    211584                       # Number of write requests accepted
system.mem_ctrls0.readBursts                   335126                       # Number of DRAM read bursts, including those serviced by the write queue
system.mem_ctrls0.writeBursts                  211584                       # Number of DRAM write bursts, including those merged in the write queue
system.mem_ctrls0.bytesReadDRAM              21446656                       # Total number of bytes read from DRAM
system.mem_ctrls0.bytesReadWrQ                   1408                       # Total number of bytes read from write queue
system.mem_ctrls0.bytesWritten               13541312                       # Total number of bytes written to DRAM
system.mem_ctrls0.bytesReadSys               21448064                       # Total read bytes from the system interface side
system.mem_ctrls0.bytesWrittenSys            13541376                       # Total written bytes from the system interface side
system.mem_ctrls0.servicedByWrQ                    22                       # Number of DRAM read bursts serviced by the write queue
system.mem_ctrls0.mergedWrBursts                    0                       # Number of DRAM write bursts merged with an existing one
system.mem_ctrls0.neitherReadNorWriteReqs            0                       # Number of requests that are neither read nor write
system.mem_ctrls0.perBankRdBursts::0            20681                       # Per bank write bursts
system.mem_ctrls0.perBankRdBursts::1            21305                       # Per bank write bursts
system.mem_ctrls0.perBankRdBursts::2            20871                       # Per bank write bursts
system.mem_ctrls0.perBankRdBursts::3            21352                       # Per bank write bursts
system.mem_ctrls0.perBankRdBursts::4            20960                       # Per bank write bursts
system.mem_ctrls0.perBankRdBursts::5            21172                       # Per bank write bursts
system.mem_ctrls0.perBankRdBursts::6            21068                       # Per bank write bursts
system.mem_ctrls0.perBankRdBursts::7            21064                       # Per bank write bursts
system.mem_ctrls0.perBankRdBursts::8            20836                       # Per bank write bursts
system.mem_ctrls0.perBankRdBursts::9            21040                       # Per bank write bursts
system.mem_ctrls0.perBankRdBursts::10           20808                       # Per bank write bursts
system.mem_ctrls0.perBankRdBursts::11           21190                       # Per bank write bursts
system.mem_ctrls0.perBankRdBursts::12           20650                       # Per bank write bursts
system.mem_ctrls0.perBankRdBursts::13           20555                       # Per bank write bursts
system.mem_ctrls0.perBankRdBursts::14           20781                       # Per bank write bursts
system.mem_ctrls0.perBankRdBursts::15           20771                       # Per bank write bursts
system.mem_ctrls0.perBankWrBursts::0            13278                       # Per bank write bursts
system.mem_ctrls0.perBankWrBursts::1            13231                       # Per bank write bursts
system.mem_ctrls0.perBankWrBursts::2            13143                       # Per bank write bursts
system.mem_ctrls0.perBankWrBursts::3            13366                       # Per bank write bursts
system.mem_ctrls0.perBankWrBursts::4            13196                       # Per bank write bursts
system.mem_ctrls0.perBankWrBursts::5            13316                       # Per bank write bursts
system.mem_ctrls0.perBankWrBursts::6            13250                       # Per bank write bursts
system.mem_ctrls0.perBankWrBursts::7            13445                       # Per bank write bursts
system.mem_ctrls0.perBankWrBursts::8            13161                       # Per bank write bursts
system.mem_ctrls0.perBankWrBursts::9            13358                       # Per bank write bursts
system.mem_ctrls0.perBankWrBursts::10           13131                       # Per bank write bursts
system.mem_ctrls0.perBankWrBursts::11           13076                       # Per bank write bursts
system.mem_ctrls0.perBankWrBursts::12           13063                       # Per bank write bursts
system.mem_ctrls0.perBankWrBursts::13           13070                       # Per bank write bursts
system.mem_ctrls0.perBankWrBursts::14           13363                       # Per bank write bursts
system.mem_ctrls0.perBankWrBursts::15           13136                       # Per bank write bursts
system.mem_ctrls0.numRdRetry                     8092                       # Number of times read queue was full causing retry
system.mem_ctrls0.numWrRetry                     2675                       # Number of times write queue was full causing retry
system.mem_ctrls0.totGap                 131442757500                       # Total gap between requests
system.mem_ctrls0.readPktSize::0                    0                       # Read request sizes (log2)
system.mem_ctrls0.readPktSize::1                    0                       # Read request sizes (log2)
system.mem_ctrls0.readPktSize::2                    0                       # Read request sizes (log2)
system.mem_ctrls0.readPktSize::3                    0                       # Read request sizes (log2)
system.mem_ctrls0.readPktSize::4                    0                       # Read request sizes (log2)
system.mem_ctrls0.readPktSize::5                    0                       # Read request sizes (log2)
system.mem_ctrls0.readPktSize::6               335126                       # Read request sizes (log2)
system.mem_ctrls0.writePktSize::0                   0                       # Write request sizes (log2)
system.mem_ctrls0.writePktSize::1                   0                       # Write request sizes (log2)
system.mem_ctrls0.writePktSize::2                   0                       # Write request sizes (log2)
system.mem_ctrls0.writePktSize::3                   0                       # Write request sizes (log2)
system.mem_ctrls0.writePktSize::4                   0                       # Write request sizes (log2)
system.mem_ctrls0.writePktSize::5                   0                       # Write request sizes (log2)
system.mem_ctrls0.writePktSize::6              211584                       # Write request sizes (log2)
system.mem_ctrls0.rdQLenPdf::0                 185216                       # What read queue length does an incoming req see
system.mem_ctrls0.rdQLenPdf::1                  18342                       # What read queue length does an incoming req see
system.mem_ctrls0.rdQLenPdf::2                  16035                       # What read queue length does an incoming req see
system.mem_ctrls0.rdQLenPdf::3                  13630                       # What read queue length does an incoming req see
system.mem_ctrls0.rdQLenPdf::4                  12350                       # What read queue length does an incoming req see
system.mem_ctrls0.rdQLenPdf::5                  11265                       # What read queue length does an incoming req see
system.mem_ctrls0.rdQLenPdf::6                  10400                       # What read queue length does an incoming req see
system.mem_ctrls0.rdQLenPdf::7                   9203                       # What read queue length does an incoming req see
system.mem_ctrls0.rdQLenPdf::8                   7984                       # What read queue length does an incoming req see
system.mem_ctrls0.rdQLenPdf::9                   6903                       # What read queue length does an incoming req see
system.mem_ctrls0.rdQLenPdf::10                  5810                       # What read queue length does an incoming req see
system.mem_ctrls0.rdQLenPdf::11                  4932                       # What read queue length does an incoming req see
system.mem_ctrls0.rdQLenPdf::12                  4051                       # What read queue length does an incoming req see
system.mem_ctrls0.rdQLenPdf::13                  3532                       # What read queue length does an incoming req see
system.mem_ctrls0.rdQLenPdf::14                  2975                       # What read queue length does an incoming req see
system.mem_ctrls0.rdQLenPdf::15                  2451                       # What read queue length does an incoming req see
system.mem_ctrls0.rdQLenPdf::16                  1967                       # What read queue length does an incoming req see
system.mem_ctrls0.rdQLenPdf::17                  1638                       # What read queue length does an incoming req see
system.mem_ctrls0.rdQLenPdf::18                  1399                       # What read queue length does an incoming req see
system.mem_ctrls0.rdQLenPdf::19                  1131                       # What read queue length does an incoming req see
system.mem_ctrls0.rdQLenPdf::20                   984                       # What read queue length does an incoming req see
system.mem_ctrls0.rdQLenPdf::21                   829                       # What read queue length does an incoming req see
system.mem_ctrls0.rdQLenPdf::22                   722                       # What read queue length does an incoming req see
system.mem_ctrls0.rdQLenPdf::23                   556                       # What read queue length does an incoming req see
system.mem_ctrls0.rdQLenPdf::24                   455                       # What read queue length does an incoming req see
system.mem_ctrls0.rdQLenPdf::25                   366                       # What read queue length does an incoming req see
system.mem_ctrls0.rdQLenPdf::26                   297                       # What read queue length does an incoming req see
system.mem_ctrls0.rdQLenPdf::27                   266                       # What read queue length does an incoming req see
system.mem_ctrls0.rdQLenPdf::28                   212                       # What read queue length does an incoming req see
system.mem_ctrls0.rdQLenPdf::29                   215                       # What read queue length does an incoming req see
system.mem_ctrls0.rdQLenPdf::30                   251                       # What read queue length does an incoming req see
system.mem_ctrls0.rdQLenPdf::31                  8737                       # What read queue length does an incoming req see
system.mem_ctrls0.wrQLenPdf::0                  38806                       # What write queue length does an incoming req see
system.mem_ctrls0.wrQLenPdf::1                  40138                       # What write queue length does an incoming req see
system.mem_ctrls0.wrQLenPdf::2                  40614                       # What write queue length does an incoming req see
system.mem_ctrls0.wrQLenPdf::3                  40698                       # What write queue length does an incoming req see
system.mem_ctrls0.wrQLenPdf::4                  40271                       # What write queue length does an incoming req see
system.mem_ctrls0.wrQLenPdf::5                   3119                       # What write queue length does an incoming req see
system.mem_ctrls0.wrQLenPdf::6                   2799                       # What write queue length does an incoming req see
system.mem_ctrls0.wrQLenPdf::7                   5139                       # What write queue length does an incoming req see
system.mem_ctrls0.bytesPerActivate::samples       154615                       # Bytes accessed per row activation
system.mem_ctrls0.bytesPerActivate::mean   226.285108                       # Bytes accessed per row activation
system.mem_ctrls0.bytesPerActivate::gmean   165.289285                       # Bytes accessed per row activation
system.mem_ctrls0.bytesPerActivate::stdev   191.616082                       # Bytes accessed per row activation
system.mem_ctrls0.bytesPerActivate::0-127        53348     34.50%     34.50% # Bytes accessed per row activation
system.mem_ctrls0.bytesPerActivate::128-255        31958     20.67%     55.17% # Bytes accessed per row activation
system.mem_ctrls0.bytesPerActivate::256-383        52668     34.06%     89.24% # Bytes accessed per row activation
system.mem_ctrls0.bytesPerActivate::384-511         5589      3.61%     92.85% # Bytes accessed per row activation
system.mem_ctrls0.bytesPerActivate::512-639         3800      2.46%     95.31% # Bytes accessed per row activation
system.mem_ctrls0.bytesPerActivate::640-767         2058      1.33%     96.64% # Bytes accessed per row activation
system.mem_ctrls0.bytesPerActivate::768-895         1347      0.87%     97.51% # Bytes accessed per row activation
system.mem_ctrls0.bytesPerActivate::896-1023         1077      0.70%     98.21% # Bytes accessed per row activation
system.mem_ctrls0.bytesPerActivate::1024-1151         2770      1.79%    100.00% # Bytes accessed per row activation
system.mem_ctrls0.bytesPerActivate::total       154615                       # Bytes accessed per row activation
system.mem_ctrls0.rdPerTurnAround::samples        39047                       # Reads before turning the bus around for writes
system.mem_ctrls0.rdPerTurnAround::mean      8.581581                       # Reads before turning the bus around for writes
system.mem_ctrls0.rdPerTurnAround::stdev    22.993709                       # Reads before turning the bus around for writes
system.mem_ctrls0.rdPerTurnAround::0-127        39033     99.96%     99.96% # Reads before turning the bus around for writes
system.mem_ctrls0.rdPerTurnAround::128-255           13      0.03%    100.00% # Reads before turning the bus around for writes
system.mem_ctrls0.rdPerTurnAround::3968-4095            1      0.00%    100.00% # Reads before turning the bus around for writes
system.mem_ctrls0.rdPerTurnAround::total        39047                       # Reads before turning the bus around for writes
system.mem_ctrls0.wrPerTurnAround::samples        39047                       # Writes before turning the bus around for reads
system.mem_ctrls0.wrPerTurnAround::mean      5.418675                       # Writes before turning the bus around for reads
system.mem_ctrls0.wrPerTurnAround::gmean     5.289292                       # Writes before turning the bus around for reads
system.mem_ctrls0.wrPerTurnAround::stdev     1.592698                       # Writes before turning the bus around for reads
system.mem_ctrls0.wrPerTurnAround::4-7          36968     94.68%     94.68% # Writes before turning the bus around for reads
system.mem_ctrls0.wrPerTurnAround::8-11          1259      3.22%     97.90% # Writes before turning the bus around for reads
system.mem_ctrls0.wrPerTurnAround::12-15          414      1.06%     98.96% # Writes before turning the bus around for reads
system.mem_ctrls0.wrPerTurnAround::16-19          406      1.04%    100.00% # Writes before turning the bus around for reads
system.mem_ctrls0.wrPerTurnAround::total        39047                       # Writes before turning the bus around for reads
system.mem_ctrls0.totQLat                 14526496531                       # Total ticks spent queuing
system.mem_ctrls0.totMemAccLat            20809696531                       # Total ticks spent from burst creation until serviced by the DRAM
system.mem_ctrls0.totBusLat                1675520000                       # Total ticks spent in databus transfers
system.mem_ctrls0.avgQLat                    43349.22                       # Average queueing delay per DRAM burst
system.mem_ctrls0.avgBusLat                   5000.00                       # Average bus latency per DRAM burst
system.mem_ctrls0.avgMemAccLat               62099.22                       # Average memory access latency per DRAM burst
system.mem_ctrls0.avgRdBW                      163.16                       # Average DRAM read bandwidth in MiByte/s
system.mem_ctrls0.avgWrBW                      103.02                       # Average achieved write bandwidth in MiByte/s
system.mem_ctrls0.avgRdBWSys                   163.17                       # Average system read bandwidth in MiByte/s
system.mem_ctrls0.avgWrBWSys                   103.02                       # Average system write bandwidth in MiByte/s
system.mem_ctrls0.peakBW                     12800.00                       # Theoretical peak bandwidth in MiByte/s
system.mem_ctrls0.busUtil                        2.08                       # Data bus utilization in percentage
system.mem_ctrls0.busUtilRead                    1.27                       # Data bus utilization in percentage for reads
system.mem_ctrls0.busUtilWrite                   0.80                       # Data bus utilization in percentage for writes
system.mem_ctrls0.avgRdQLen                      1.13                       # Average read queue length when enqueuing
system.mem_ctrls0.avgWrQLen                      2.96                       # Average write queue length when enqueuing
system.mem_ctrls0.readRowHits                  253281                       # Number of row buffer hits during reads
system.mem_ctrls0.writeRowHits                 138783                       # Number of row buffer hits during writes
system.mem_ctrls0.readRowHitRate                75.58                       # Row buffer hit rate for reads
system.mem_ctrls0.writeRowHitRate               65.59                       # Row buffer hit rate for writes
system.mem_ctrls0.avgGap                    240425.01                       # Average gap between requests
system.mem_ctrls0.pageHitRate                   71.72                       # Row buffer hit rate, read and write combined
system.mem_ctrls0.memoryStateTime::IDLE   28041737750                       # Time in different power states
system.mem_ctrls0.memoryStateTime::REF     4389060000                       # Time in different power states
system.mem_ctrls0.memoryStateTime::PRE_PDN            0                       # Time in different power states
system.mem_ctrls0.memoryStateTime::ACT    99009507750                       # Time in different power states
system.mem_ctrls0.memoryStateTime::ACT_PDN            0                       # Time in different power states
system.mem_ctrls0.actEnergy::0              590095800                       # Energy for activate commands per rank (pJ)
system.mem_ctrls0.actEnergy::1              578786040                       # Energy for activate commands per rank (pJ)
system.mem_ctrls0.preEnergy::0              321976875                       # Energy for precharge commands per rank (pJ)
system.mem_ctrls0.preEnergy::1              315805875                       # Energy for precharge commands per rank (pJ)
system.mem_ctrls0.readEnergy::0            1314027000                       # Energy for read commands per rank (pJ)
system.mem_ctrls0.readEnergy::1            1299651600                       # Energy for read commands per rank (pJ)
system.mem_ctrls0.writeEnergy::0            688338000                       # Energy for write commands per rank (pJ)
system.mem_ctrls0.writeEnergy::1            682719840                       # Energy for write commands per rank (pJ)
system.mem_ctrls0.refreshEnergy::0         8585001360                       # Energy for refresh commands per rank (pJ)
system.mem_ctrls0.refreshEnergy::1         8585001360                       # Energy for refresh commands per rank (pJ)
system.mem_ctrls0.actBackEnergy::0        50208306075                       # Energy for active background per rank (pJ)
system.mem_ctrls0.actBackEnergy::1        49774838175                       # Energy for active background per rank (pJ)
system.mem_ctrls0.preBackEnergy::0        34821594000                       # Energy for precharge background per rank (pJ)
system.mem_ctrls0.preBackEnergy::1        35201829000                       # Energy for precharge background per rank (pJ)
system.mem_ctrls0.totalEnergy::0          96529339110                       # Total energy per rank (pJ)
system.mem_ctrls0.totalEnergy::1          96438631890                       # Total energy per rank (pJ)
system.mem_ctrls0.averagePower::0          734.398802                       # Core power per rank (mW)
system.mem_ctrls0.averagePower::1          733.708698                       # Core power per rank (mW)
system.mem_ctrls1.bytes_read::ruby.dir_cntrl1     20798208                       # Number of bytes read from this memory
system.mem_ctrls1.bytes_read::total          20798208                       # Number of bytes read from this memory
system.mem_ctrls1.bytes_written::ruby.dir_cntrl1     12914688                       # Number of bytes written to this memory
system.mem_ctrls1.bytes_written::total       12914688                       # Number of bytes written to this memory
system.mem_ctrls1.num_reads::ruby.dir_cntrl1       324972                       # Number of read requests responded to by this memory
system.mem_ctrls1.num_reads::total             324972                       # Number of read requests responded to by this memory
system.mem_ctrls1.num_writes::ruby.dir_cntrl1       201792                       # Number of write requests responded to by this memory
system.mem_ctrls1.num_writes::total            201792                       # Number of write requests responded to by this memory
system.mem_ctrls1.bw_read::ruby.dir_cntrl1    158229499                       # Total read bandwidth from this memory (bytes/s)
system.mem_ctrls1.bw_read::total            158229499                       # Total read bandwidth from this memory (bytes/s)
system.mem_ctrls1.bw_write::ruby.dir_cntrl1     98252917                       # Write bandwidth from this memory (bytes/s)
system.mem_ctrls1.bw_write::total            98252917                       # Write bandwidth from this memory (bytes/s)
system.mem_ctrls1.bw_total::ruby.dir_cntrl1    256482416                       # Total bandwidth to/from this memory (bytes/s)
system.mem_ctrls1.bw_total::total           256482416                       # Total bandwidth to/from this memory (bytes/s)
system.mem_ctrls1.readReqs                     324972                       # Number of read requests accepted
system.mem_ctrls1.writeReqs                    201792                       # Number of write requests accepted
system.mem_ctrls1.readBursts                   324972                       # Number of DRAM read bursts, including those serviced by the write queue
system.mem_ctrls1.writeBursts                  201792                       # Number of DRAM write bursts, including those merged in the write queue
system.mem_ctrls1.bytesReadDRAM              20797120                       # Total number of bytes read from DRAM
system.mem_ctrls1.bytesReadWrQ                   1088                       # Total number of bytes read from write queue
system.mem_ctrls1.bytesWritten               12914560                       # Total number of bytes written to DRAM
system.mem_ctrls1.bytesReadSys               20798208                       # Total read bytes from the system interface side
system.mem_ctrls1.bytesWrittenSys            12914688                       # Total written bytes from the system interface side
system.mem_ctrls1.servicedByWrQ                    17                       # Number of DRAM read bursts serviced by the write queue
system.mem_ctrls1.mergedWrBursts                    0                       # Number of DRAM write bursts merged with an existing one
system.mem_ctrls1.neitherReadNorWriteReqs            0                       # Number of requests that are neither read nor write
system.mem_ctrls1.perBankRdBursts::0            20059                       # Per bank write bursts
system.mem_ctrls1.perBankRdBursts::1            20698                       # Per bank write bursts
system.mem_ctrls1.perBankRdBursts::2            20233                       # Per bank write bursts
system.mem_ctrls1.perBankRdBursts::3            20682                       # Per bank write bursts
system.mem_ctrls1.perBankRdBursts::4            20375                       # Per bank write bursts
system.mem_ctrls1.perBankRdBursts::5            20540                       # Per bank write bursts
system.mem_ctrls1.perBankRdBursts::6            20433                       # Per bank write bursts
system.mem_ctrls1.perBankRdBursts::7            20517                       # Per bank write bursts
system.mem_ctrls1.perBankRdBursts::8            20189                       # Per bank write bursts
system.mem_ctrls1.perBankRdBursts::9            20382                       # Per bank write bursts
system.mem_ctrls1.perBankRdBursts::10           20149                       # Per bank write bursts
system.mem_ctrls1.perBankRdBursts::11           20570                       # Per bank write bursts
system.mem_ctrls1.perBankRdBursts::12           20019                       # Per bank write bursts
system.mem_ctrls1.perBankRdBursts::13           19893                       # Per bank write bursts
system.mem_ctrls1.perBankRdBursts::14           20083                       # Per bank write bursts
system.mem_ctrls1.perBankRdBursts::15           20133                       # Per bank write bursts
system.mem_ctrls1.perBankWrBursts::0            12669                       # Per bank write bursts
system.mem_ctrls1.perBankWrBursts::1            12639                       # Per bank write bursts
system.mem_ctrls1.perBankWrBursts::2            12538                       # Per bank write bursts
system.mem_ctrls1.perBankWrBursts::3            12757                       # Per bank write bursts
system.mem_ctrls1.perBankWrBursts::4            12596                       # Per bank write bursts
system.mem_ctrls1.perBankWrBursts::5            12718                       # Per bank write bursts
system.mem_ctrls1.perBankWrBursts::6            12630                       # Per bank write bursts
system.mem_ctrls1.perBankWrBursts::7            12827                       # Per bank write bursts
system.mem_ctrls1.perBankWrBursts::8            12544                       # Per bank write bursts
system.mem_ctrls1.perBankWrBursts::9            12733                       # Per bank write bursts
system.mem_ctrls1.perBankWrBursts::10           12521                       # Per bank write bursts
system.mem_ctrls1.perBankWrBursts::11           12464                       # Per bank write bursts
system.mem_ctrls1.perBankWrBursts::12           12461                       # Per bank write bursts
system.mem_ctrls1.perBankWrBursts::13           12462                       # Per bank write bursts
system.mem_ctrls1.perBankWrBursts::14           12701                       # Per bank write bursts
system.mem_ctrls1.perBankWrBursts::15           12530                       # Per bank write bursts
system.mem_ctrls1.numRdRetry                     4310                       # Number of times read queue was full causing retry
system.mem_ctrls1.numWrRetry                     2029                       # Number of times write queue was full causing retry
system.mem_ctrls1.totGap                 131442479500                       # Total gap between requests
system.mem_ctrls1.readPktSize::0                    0                       # Read request sizes (log2)
system.mem_ctrls1.readPktSize::1                    0                       # Read request sizes (log2)
system.mem_ctrls1.readPktSize::2                    0                       # Read request sizes (log2)
system.mem_ctrls1.readPktSize::3                    0                       # Read request sizes (log2)
system.mem_ctrls1.readPktSize::4                    0                       # Read request sizes (log2)
system.mem_ctrls1.readPktSize::5                    0                       # Read request sizes (log2)
system.mem_ctrls1.readPktSize::6               324972                       # Read request sizes (log2)
system.mem_ctrls1.writePktSize::0                   0                       # Write request sizes (log2)
system.mem_ctrls1.writePktSize::1                   0                       # Write request sizes (log2)
system.mem_ctrls1.writePktSize::2                   0                       # Write request sizes (log2)
system.mem_ctrls1.writePktSize::3                   0                       # Write request sizes (log2)
system.mem_ctrls1.writePktSize::4                   0                       # Write request sizes (log2)
system.mem_ctrls1.writePktSize::5                   0                       # Write request sizes (log2)
system.mem_ctrls1.writePktSize::6              201792                       # Write request sizes (log2)
system.mem_ctrls1.rdQLenPdf::0                 181314                       # What read queue length does an incoming req see
system.mem_ctrls1.rdQLenPdf::1                  15745                       # What read queue length does an incoming req see
system.mem_ctrls1.rdQLenPdf::2                  15702                       # What read queue length does an incoming req see
system.mem_ctrls1.rdQLenPdf::3                  14345                       # What read queue length does an incoming req see
system.mem_ctrls1.rdQLenPdf::4                  13011                       # What read queue length does an incoming req see
system.mem_ctrls1.rdQLenPdf::5                  11700                       # What read queue length does an incoming req see
system.mem_ctrls1.rdQLenPdf::6                  10486                       # What read queue length does an incoming req see
system.mem_ctrls1.rdQLenPdf::7                   9154                       # What read queue length does an incoming req see
system.mem_ctrls1.rdQLenPdf::8                   7788                       # What read queue length does an incoming req see
system.mem_ctrls1.rdQLenPdf::9                   6649                       # What read queue length does an incoming req see
system.mem_ctrls1.rdQLenPdf::10                  5546                       # What read queue length does an incoming req see
system.mem_ctrls1.rdQLenPdf::11                  4735                       # What read queue length does an incoming req see
system.mem_ctrls1.rdQLenPdf::12                  4029                       # What read queue length does an incoming req see
system.mem_ctrls1.rdQLenPdf::13                  3299                       # What read queue length does an incoming req see
system.mem_ctrls1.rdQLenPdf::14                  2712                       # What read queue length does an incoming req see
system.mem_ctrls1.rdQLenPdf::15                  2280                       # What read queue length does an incoming req see
system.mem_ctrls1.rdQLenPdf::16                  1901                       # What read queue length does an incoming req see
system.mem_ctrls1.rdQLenPdf::17                  1571                       # What read queue length does an incoming req see
system.mem_ctrls1.rdQLenPdf::18                  1299                       # What read queue length does an incoming req see
system.mem_ctrls1.rdQLenPdf::19                  1109                       # What read queue length does an incoming req see
system.mem_ctrls1.rdQLenPdf::20                   892                       # What read queue length does an incoming req see
system.mem_ctrls1.rdQLenPdf::21                   749                       # What read queue length does an incoming req see
system.mem_ctrls1.rdQLenPdf::22                   655                       # What read queue length does an incoming req see
system.mem_ctrls1.rdQLenPdf::23                   516                       # What read queue length does an incoming req see
system.mem_ctrls1.rdQLenPdf::24                   462                       # What read queue length does an incoming req see
system.mem_ctrls1.rdQLenPdf::25                   413                       # What read queue length does an incoming req see
system.mem_ctrls1.rdQLenPdf::26                   407                       # What read queue length does an incoming req see
system.mem_ctrls1.rdQLenPdf::27                   400                       # What read queue length does an incoming req see
system.mem_ctrls1.rdQLenPdf::28                   387                       # What read queue length does an incoming req see
system.mem_ctrls1.rdQLenPdf::29                   407                       # What read queue length does an incoming req see
system.mem_ctrls1.rdQLenPdf::30                   398                       # What read queue length does an incoming req see
system.mem_ctrls1.rdQLenPdf::31                  4894                       # What read queue length does an incoming req see
system.mem_ctrls1.wrQLenPdf::0                  36971                       # What write queue length does an incoming req see
system.mem_ctrls1.wrQLenPdf::1                  38263                       # What write queue length does an incoming req see
system.mem_ctrls1.wrQLenPdf::2                  38648                       # What write queue length does an incoming req see
system.mem_ctrls1.wrQLenPdf::3                  38714                       # What write queue length does an incoming req see
system.mem_ctrls1.wrQLenPdf::4                  38844                       # What write queue length does an incoming req see
system.mem_ctrls1.wrQLenPdf::5                   3275                       # What write queue length does an incoming req see
system.mem_ctrls1.wrQLenPdf::6                   2877                       # What write queue length does an incoming req see
system.mem_ctrls1.wrQLenPdf::7                   4200                       # What write queue length does an incoming req see
system.mem_ctrls1.bytesPerActivate::samples       127705                       # Bytes accessed per row activation
system.mem_ctrls1.bytesPerActivate::mean   263.974378                       # Bytes accessed per row activation
system.mem_ctrls1.bytesPerActivate::gmean   202.890627                       # Bytes accessed per row activation
system.mem_ctrls1.bytesPerActivate::stdev   200.895271                       # Bytes accessed per row activation
system.mem_ctrls1.bytesPerActivate::0-127        26444     20.71%     20.71% # Bytes accessed per row activation
system.mem_ctrls1.bytesPerActivate::128-255        31353     24.55%     45.26% # Bytes accessed per row activation
system.mem_ctrls1.bytesPerActivate::256-383        52253     40.92%     86.18% # Bytes accessed per row activation
system.mem_ctrls1.bytesPerActivate::384-511         5195      4.07%     90.24% # Bytes accessed per row activation
system.mem_ctrls1.bytesPerActivate::512-639         4340      3.40%     93.64% # Bytes accessed per row activation
system.mem_ctrls1.bytesPerActivate::640-767         2138      1.67%     95.32% # Bytes accessed per row activation
system.mem_ctrls1.bytesPerActivate::768-895         1508      1.18%     96.50% # Bytes accessed per row activation
system.mem_ctrls1.bytesPerActivate::896-1023         1151      0.90%     97.40% # Bytes accessed per row activation
system.mem_ctrls1.bytesPerActivate::1024-1151         3323      2.60%    100.00% # Bytes accessed per row activation
system.mem_ctrls1.bytesPerActivate::total       127705                       # Bytes accessed per row activation
system.mem_ctrls1.rdPerTurnAround::samples        37212                       # Reads before turning the bus around for writes
system.mem_ctrls1.rdPerTurnAround::mean      8.731673                       # Reads before turning the bus around for writes
system.mem_ctrls1.rdPerTurnAround::stdev    20.281396                       # Reads before turning the bus around for writes
system.mem_ctrls1.rdPerTurnAround::0-127        37178     99.91%     99.91% # Reads before turning the bus around for writes
system.mem_ctrls1.rdPerTurnAround::128-255           32      0.09%     99.99% # Reads before turning the bus around for writes
system.mem_ctrls1.rdPerTurnAround::1152-1279            1      0.00%    100.00% # Reads before turning the bus around for writes
system.mem_ctrls1.rdPerTurnAround::2816-2943            1      0.00%    100.00% # Reads before turning the bus around for writes
system.mem_ctrls1.rdPerTurnAround::total        37212                       # Reads before turning the bus around for writes
system.mem_ctrls1.wrPerTurnAround::samples        37212                       # Writes before turning the bus around for reads
system.mem_ctrls1.wrPerTurnAround::mean      5.422713                       # Writes before turning the bus around for reads
system.mem_ctrls1.wrPerTurnAround::gmean     5.287635                       # Writes before turning the bus around for reads
system.mem_ctrls1.wrPerTurnAround::stdev     1.621345                       # Writes before turning the bus around for reads
system.mem_ctrls1.wrPerTurnAround::4-7          34999     94.05%     94.05% # Writes before turning the bus around for reads
system.mem_ctrls1.wrPerTurnAround::8-11          1378      3.70%     97.76% # Writes before turning the bus around for reads
system.mem_ctrls1.wrPerTurnAround::12-15          471      1.27%     99.02% # Writes before turning the bus around for reads
system.mem_ctrls1.wrPerTurnAround::16-19          364      0.98%    100.00% # Writes before turning the bus around for reads
system.mem_ctrls1.wrPerTurnAround::total        37212                       # Writes before turning the bus around for reads
system.mem_ctrls1.totQLat                 12626888111                       # Total ticks spent queuing
system.mem_ctrls1.totMemAccLat            18719794361                       # Total ticks spent from burst creation until serviced by the DRAM
system.mem_ctrls1.totBusLat                1624775000                       # Total ticks spent in databus transfers
system.mem_ctrls1.avgQLat                    38857.34                       # Average queueing delay per DRAM burst
system.mem_ctrls1.avgBusLat                   5000.00                       # Average bus latency per DRAM burst
system.mem_ctrls1.avgMemAccLat               57607.34                       # Average memory access latency per DRAM burst
system.mem_ctrls1.avgRdBW                      158.22                       # Average DRAM read bandwidth in MiByte/s
system.mem_ctrls1.avgWrBW                       98.25                       # Average achieved write bandwidth in MiByte/s
system.mem_ctrls1.avgRdBWSys                   158.23                       # Average system read bandwidth in MiByte/s
system.mem_ctrls1.avgWrBWSys                    98.25                       # Average system write bandwidth in MiByte/s
system.mem_ctrls1.peakBW                     12800.00                       # Theoretical peak bandwidth in MiByte/s
system.mem_ctrls1.busUtil                        2.00                       # Data bus utilization in percentage
system.mem_ctrls1.busUtilRead                    1.24                       # Data bus utilization in percentage for reads
system.mem_ctrls1.busUtilWrite                   0.77                       # Data bus utilization in percentage for writes
system.mem_ctrls1.avgRdQLen                      1.11                       # Average read queue length when enqueuing
system.mem_ctrls1.avgWrQLen                      2.97                       # Average write queue length when enqueuing
system.mem_ctrls1.readRowHits                  254510                       # Number of row buffer hits during reads
system.mem_ctrls1.writeRowHits                 144524                       # Number of row buffer hits during writes
system.mem_ctrls1.readRowHitRate                78.32                       # Row buffer hit rate for reads
system.mem_ctrls1.writeRowHitRate               71.62                       # Row buffer hit rate for writes
system.mem_ctrls1.avgGap                    249528.21                       # Average gap between requests
system.mem_ctrls1.pageHitRate                   75.75                       # Row buffer hit rate, read and write combined
system.mem_ctrls1.memoryStateTime::IDLE   28548848000                       # Time in different power states
system.mem_ctrls1.memoryStateTime::REF     4389060000                       # Time in different power states
system.mem_ctrls1.memoryStateTime::PRE_PDN            0                       # Time in different power states
system.mem_ctrls1.memoryStateTime::ACT    98502052000                       # Time in different power states
system.mem_ctrls1.memoryStateTime::ACT_PDN            0                       # Time in different power states
system.mem_ctrls1.actEnergy::0              488776680                       # Energy for activate commands per rank (pJ)
system.mem_ctrls1.actEnergy::1              476665560                       # Energy for activate commands per rank (pJ)
system.mem_ctrls1.preEnergy::0              266693625                       # Energy for precharge commands per rank (pJ)
system.mem_ctrls1.preEnergy::1              260085375                       # Energy for precharge commands per rank (pJ)
system.mem_ctrls1.readEnergy::0            1275526200                       # Energy for read commands per rank (pJ)
system.mem_ctrls1.readEnergy::1            1259013600                       # Energy for read commands per rank (pJ)
system.mem_ctrls1.writeEnergy::0            656903520                       # Energy for write commands per rank (pJ)
system.mem_ctrls1.writeEnergy::1            650695680                       # Energy for write commands per rank (pJ)
system.mem_ctrls1.refreshEnergy::0         8585001360                       # Energy for refresh commands per rank (pJ)
system.mem_ctrls1.refreshEnergy::1         8585001360                       # Energy for refresh commands per rank (pJ)
system.mem_ctrls1.actBackEnergy::0        49646055510                       # Energy for active background per rank (pJ)
system.mem_ctrls1.actBackEnergy::1        48705616215                       # Energy for active background per rank (pJ)
system.mem_ctrls1.preBackEnergy::0        35314796250                       # Energy for precharge background per rank (pJ)
system.mem_ctrls1.preBackEnergy::1        36139743000                       # Energy for precharge background per rank (pJ)
system.mem_ctrls1.totalEnergy::0          96233753145                       # Total energy per rank (pJ)
system.mem_ctrls1.totalEnergy::1          96076820790                       # Total energy per rank (pJ)
system.mem_ctrls1.averagePower::0          732.149973                       # Core power per rank (mW)
system.mem_ctrls1.averagePower::1          730.956026                       # Core power per rank (mW)
system.mem_ctrls2.bytes_read::ruby.dir_cntrl2     20796736                       # Number of bytes read from this memory
system.mem_ctrls2.bytes_read::total          20796736                       # Number of bytes read from this memory
system.mem_ctrls2.bytes_written::ruby.dir_cntrl2     12915072                       # Number of bytes written to this memory
system.mem_ctrls2.bytes_written::total       12915072                       # Number of bytes written to this memory
system.mem_ctrls2.num_reads::ruby.dir_cntrl2       324949                       # Number of read requests responded to by this memory
system.mem_ctrls2.num_reads::total             324949                       # Number of read requests responded to by this memory
system.mem_ctrls2.num_writes::ruby.dir_cntrl2       201798                       # Number of write requests responded to by this memory
system.mem_ctrls2.num_writes::total            201798                       # Number of write requests responded to by this memory
system.mem_ctrls2.bw_read::ruby.dir_cntrl2    158218300                       # Total read bandwidth from this memory (bytes/s)
system.mem_ctrls2.bw_read::total            158218300                       # Total read bandwidth from this memory (bytes/s)
system.mem_ctrls2.bw_write::ruby.dir_cntrl2     98255838                       # Write bandwidth from this memory (bytes/s)
system.mem_ctrls2.bw_write::total            98255838                       # Write bandwidth from this memory (bytes/s)
system.mem_ctrls2.bw_total::ruby.dir_cntrl2    256474138                       # Total bandwidth to/from this memory (bytes/s)
system.mem_ctrls2.bw_total::total           256474138                       # Total bandwidth to/from this memory (bytes/s)
system.mem_ctrls2.readReqs                     324949                       # Number of read requests accepted
system.mem_ctrls2.writeReqs                    201798                       # Number of write requests accepted
system.mem_ctrls2.readBursts                   324949                       # Number of DRAM read bursts, including those serviced by the write queue
system.mem_ctrls2.writeBursts                  201798                       # Number of DRAM write bursts, including those merged in the write queue
system.mem_ctrls2.bytesReadDRAM              20795648                       # Total number of bytes read from DRAM
system.mem_ctrls2.bytesReadWrQ                   1088                       # Total number of bytes read from write queue
system.mem_ctrls2.bytesWritten               12915072                       # Total number of bytes written to DRAM
system.mem_ctrls2.bytesReadSys               20796736                       # Total read bytes from the system interface side
system.mem_ctrls2.bytesWrittenSys            12915072                       # Total written bytes from the system interface side
system.mem_ctrls2.servicedByWrQ                    17                       # Number of DRAM read bursts serviced by the write queue
system.mem_ctrls2.mergedWrBursts                    0                       # Number of DRAM write bursts merged with an existing one
system.mem_ctrls2.neitherReadNorWriteReqs            0                       # Number of requests that are neither read nor write
system.mem_ctrls2.perBankRdBursts::0            20056                       # Per bank write bursts
system.mem_ctrls2.perBankRdBursts::1            20680                       # Per bank write bursts
system.mem_ctrls2.perBankRdBursts::2            20244                       # Per bank write bursts
system.mem_ctrls2.perBankRdBursts::3            20728                       # Per bank write bursts
system.mem_ctrls2.perBankRdBursts::4            20380                       # Per bank write bursts
system.mem_ctrls2.perBankRdBursts::5            20524                       # Per bank write bursts
system.mem_ctrls2.perBankRdBursts::6            20410                       # Per bank write bursts
system.mem_ctrls2.perBankRdBursts::7            20493                       # Per bank write bursts
system.mem_ctrls2.perBankRdBursts::8            20154                       # Per bank write bursts
system.mem_ctrls2.perBankRdBursts::9            20392                       # Per bank write bursts
system.mem_ctrls2.perBankRdBursts::10           20159                       # Per bank write bursts
system.mem_ctrls2.perBankRdBursts::11           20586                       # Per bank write bursts
system.mem_ctrls2.perBankRdBursts::12           20031                       # Per bank write bursts
system.mem_ctrls2.perBankRdBursts::13           19852                       # Per bank write bursts
system.mem_ctrls2.perBankRdBursts::14           20074                       # Per bank write bursts
system.mem_ctrls2.perBankRdBursts::15           20169                       # Per bank write bursts
system.mem_ctrls2.perBankWrBursts::0            12663                       # Per bank write bursts
system.mem_ctrls2.perBankWrBursts::1            12638                       # Per bank write bursts
system.mem_ctrls2.perBankWrBursts::2            12534                       # Per bank write bursts
system.mem_ctrls2.perBankWrBursts::3            12764                       # Per bank write bursts
system.mem_ctrls2.perBankWrBursts::4            12596                       # Per bank write bursts
system.mem_ctrls2.perBankWrBursts::5            12702                       # Per bank write bursts
system.mem_ctrls2.perBankWrBursts::6            12638                       # Per bank write bursts
system.mem_ctrls2.perBankWrBursts::7            12826                       # Per bank write bursts
system.mem_ctrls2.perBankWrBursts::8            12528                       # Per bank write bursts
system.mem_ctrls2.perBankWrBursts::9            12739                       # Per bank write bursts
system.mem_ctrls2.perBankWrBursts::10           12518                       # Per bank write bursts
system.mem_ctrls2.perBankWrBursts::11           12478                       # Per bank write bursts
system.mem_ctrls2.perBankWrBursts::12           12468                       # Per bank write bursts
system.mem_ctrls2.perBankWrBursts::13           12455                       # Per bank write bursts
system.mem_ctrls2.perBankWrBursts::14           12708                       # Per bank write bursts
system.mem_ctrls2.perBankWrBursts::15           12543                       # Per bank write bursts
system.mem_ctrls2.numRdRetry                     4075                       # Number of times read queue was full causing retry
system.mem_ctrls2.numWrRetry                     1842                       # Number of times write queue was full causing retry
system.mem_ctrls2.totGap                 131443213500                       # Total gap between requests
system.mem_ctrls2.readPktSize::0                    0                       # Read request sizes (log2)
system.mem_ctrls2.readPktSize::1                    0                       # Read request sizes (log2)
system.mem_ctrls2.readPktSize::2                    0                       # Read request sizes (log2)
system.mem_ctrls2.readPktSize::3                    0                       # Read request sizes (log2)
system.mem_ctrls2.readPktSize::4                    0                       # Read request sizes (log2)
system.mem_ctrls2.readPktSize::5                    0                       # Read request sizes (log2)
system.mem_ctrls2.readPktSize::6               324949                       # Read request sizes (log2)
system.mem_ctrls2.writePktSize::0                   0                       # Write request sizes (log2)
system.mem_ctrls2.writePktSize::1                   0                       # Write request sizes (log2)
system.mem_ctrls2.writePktSize::2                   0                       # Write request sizes (log2)
system.mem_ctrls2.writePktSize::3                   0                       # Write request sizes (log2)
system.mem_ctrls2.writePktSize::4                   0                       # Write request sizes (log2)
system.mem_ctrls2.writePktSize::5                   0                       # Write request sizes (log2)
system.mem_ctrls2.writePktSize::6              201798                       # Write request sizes (log2)
system.mem_ctrls2.rdQLenPdf::0                 181301                       # What read queue length does an incoming req see
system.mem_ctrls2.rdQLenPdf::1                  15573                       # What read queue length does an incoming req see
system.mem_ctrls2.rdQLenPdf::2                  15787                       # What read queue length does an incoming req see
system.mem_ctrls2.rdQLenPdf::3                  14173                       # What read queue length does an incoming req see
system.mem_ctrls2.rdQLenPdf::4                  12935                       # What read queue length does an incoming req see
system.mem_ctrls2.rdQLenPdf::5                  11759                       # What read queue length does an incoming req see
system.mem_ctrls2.rdQLenPdf::6                  10607                       # What read queue length does an incoming req see
system.mem_ctrls2.rdQLenPdf::7                   9302                       # What read queue length does an incoming req see
system.mem_ctrls2.rdQLenPdf::8                   8147                       # What read queue length does an incoming req see
system.mem_ctrls2.rdQLenPdf::9                   6810                       # What read queue length does an incoming req see
system.mem_ctrls2.rdQLenPdf::10                  5700                       # What read queue length does an incoming req see
system.mem_ctrls2.rdQLenPdf::11                  4662                       # What read queue length does an incoming req see
system.mem_ctrls2.rdQLenPdf::12                  3859                       # What read queue length does an incoming req see
system.mem_ctrls2.rdQLenPdf::13                  3145                       # What read queue length does an incoming req see
system.mem_ctrls2.rdQLenPdf::14                  2584                       # What read queue length does an incoming req see
system.mem_ctrls2.rdQLenPdf::15                  2183                       # What read queue length does an incoming req see
system.mem_ctrls2.rdQLenPdf::16                  1843                       # What read queue length does an incoming req see
system.mem_ctrls2.rdQLenPdf::17                  1571                       # What read queue length does an incoming req see
system.mem_ctrls2.rdQLenPdf::18                  1256                       # What read queue length does an incoming req see
system.mem_ctrls2.rdQLenPdf::19                  1026                       # What read queue length does an incoming req see
system.mem_ctrls2.rdQLenPdf::20                   844                       # What read queue length does an incoming req see
system.mem_ctrls2.rdQLenPdf::21                   777                       # What read queue length does an incoming req see
system.mem_ctrls2.rdQLenPdf::22                   667                       # What read queue length does an incoming req see
system.mem_ctrls2.rdQLenPdf::23                   591                       # What read queue length does an incoming req see
system.mem_ctrls2.rdQLenPdf::24                   536                       # What read queue length does an incoming req see
system.mem_ctrls2.rdQLenPdf::25                   479                       # What read queue length does an incoming req see
system.mem_ctrls2.rdQLenPdf::26                   480                       # What read queue length does an incoming req see
system.mem_ctrls2.rdQLenPdf::27                   429                       # What read queue length does an incoming req see
system.mem_ctrls2.rdQLenPdf::28                   430                       # What read queue length does an incoming req see
system.mem_ctrls2.rdQLenPdf::29                   412                       # What read queue length does an incoming req see
system.mem_ctrls2.rdQLenPdf::30                   432                       # What read queue length does an incoming req see
system.mem_ctrls2.rdQLenPdf::31                  4632                       # What read queue length does an incoming req see
system.mem_ctrls2.wrQLenPdf::0                  36973                       # What write queue length does an incoming req see
system.mem_ctrls2.wrQLenPdf::1                  38325                       # What write queue length does an incoming req see
system.mem_ctrls2.wrQLenPdf::2                  38682                       # What write queue length does an incoming req see
system.mem_ctrls2.wrQLenPdf::3                  38724                       # What write queue length does an incoming req see
system.mem_ctrls2.wrQLenPdf::4                  38810                       # What write queue length does an incoming req see
system.mem_ctrls2.wrQLenPdf::5                   3419                       # What write queue length does an incoming req see
system.mem_ctrls2.wrQLenPdf::6                   2949                       # What write queue length does an incoming req see
system.mem_ctrls2.wrQLenPdf::7                   3916                       # What write queue length does an incoming req see
system.mem_ctrls2.bytesPerActivate::samples       127356                       # Bytes accessed per row activation
system.mem_ctrls2.bytesPerActivate::mean   264.691228                       # Bytes accessed per row activation
system.mem_ctrls2.bytesPerActivate::gmean   203.543579                       # Bytes accessed per row activation
system.mem_ctrls2.bytesPerActivate::stdev   200.721313                       # Bytes accessed per row activation
system.mem_ctrls2.bytesPerActivate::0-127        26504     20.81%     20.81% # Bytes accessed per row activation
system.mem_ctrls2.bytesPerActivate::128-255        30289     23.78%     44.59% # Bytes accessed per row activation
system.mem_ctrls2.bytesPerActivate::256-383        53029     41.64%     86.23% # Bytes accessed per row activation
system.mem_ctrls2.bytesPerActivate::384-511         5084      3.99%     90.22% # Bytes accessed per row activation
system.mem_ctrls2.bytesPerActivate::512-639         4376      3.44%     93.66% # Bytes accessed per row activation
system.mem_ctrls2.bytesPerActivate::640-767         2118      1.66%     95.32% # Bytes accessed per row activation
system.mem_ctrls2.bytesPerActivate::768-895         1510      1.19%     96.51% # Bytes accessed per row activation
system.mem_ctrls2.bytesPerActivate::896-1023         1106      0.87%     97.38% # Bytes accessed per row activation
system.mem_ctrls2.bytesPerActivate::1024-1151         3340      2.62%    100.00% # Bytes accessed per row activation
system.mem_ctrls2.bytesPerActivate::total       127356                       # Bytes accessed per row activation
system.mem_ctrls2.rdPerTurnAround::samples        37207                       # Reads before turning the bus around for writes
system.mem_ctrls2.rdPerTurnAround::mean      8.732685                       # Reads before turning the bus around for writes
system.mem_ctrls2.rdPerTurnAround::stdev    20.312640                       # Reads before turning the bus around for writes
system.mem_ctrls2.rdPerTurnAround::0-127        37176     99.92%     99.92% # Reads before turning the bus around for writes
system.mem_ctrls2.rdPerTurnAround::128-255           29      0.08%     99.99% # Reads before turning the bus around for writes
system.mem_ctrls2.rdPerTurnAround::1152-1279            1      0.00%    100.00% # Reads before turning the bus around for writes
system.mem_ctrls2.rdPerTurnAround::2816-2943            1      0.00%    100.00% # Reads before turning the bus around for writes
system.mem_ctrls2.rdPerTurnAround::total        37207                       # Reads before turning the bus around for writes
system.mem_ctrls2.wrPerTurnAround::samples        37207                       # Writes before turning the bus around for reads
system.mem_ctrls2.wrPerTurnAround::mean      5.423657                       # Writes before turning the bus around for reads
system.mem_ctrls2.wrPerTurnAround::gmean     5.288653                       # Writes before turning the bus around for reads
system.mem_ctrls2.wrPerTurnAround::stdev     1.619415                       # Writes before turning the bus around for reads
system.mem_ctrls2.wrPerTurnAround::4-7          34955     93.95%     93.95% # Writes before turning the bus around for reads
system.mem_ctrls2.wrPerTurnAround::8-11          1424      3.83%     97.77% # Writes before turning the bus around for reads
system.mem_ctrls2.wrPerTurnAround::12-15          474      1.27%     99.05% # Writes before turning the bus around for reads
system.mem_ctrls2.wrPerTurnAround::16-19          354      0.95%    100.00% # Writes before turning the bus around for reads
system.mem_ctrls2.wrPerTurnAround::total        37207                       # Writes before turning the bus around for reads
system.mem_ctrls2.totQLat                 12666125373                       # Total ticks spent queuing
system.mem_ctrls2.totMemAccLat            18758600373                       # Total ticks spent from burst creation until serviced by the DRAM
system.mem_ctrls2.totBusLat                1624660000                       # Total ticks spent in databus transfers
system.mem_ctrls2.avgQLat                    38980.85                       # Average queueing delay per DRAM burst
system.mem_ctrls2.avgBusLat                   5000.00                       # Average bus latency per DRAM burst
system.mem_ctrls2.avgMemAccLat               57730.85                       # Average memory access latency per DRAM burst
system.mem_ctrls2.avgRdBW                      158.21                       # Average DRAM read bandwidth in MiByte/s
system.mem_ctrls2.avgWrBW                       98.26                       # Average achieved write bandwidth in MiByte/s
system.mem_ctrls2.avgRdBWSys                   158.22                       # Average system read bandwidth in MiByte/s
system.mem_ctrls2.avgWrBWSys                    98.26                       # Average system write bandwidth in MiByte/s
system.mem_ctrls2.peakBW                     12800.00                       # Theoretical peak bandwidth in MiByte/s
system.mem_ctrls2.busUtil                        2.00                       # Data bus utilization in percentage
system.mem_ctrls2.busUtilRead                    1.24                       # Data bus utilization in percentage for reads
system.mem_ctrls2.busUtilWrite                   0.77                       # Data bus utilization in percentage for writes
system.mem_ctrls2.avgRdQLen                      1.11                       # Average read queue length when enqueuing
system.mem_ctrls2.avgWrQLen                      2.95                       # Average write queue length when enqueuing
system.mem_ctrls2.readRowHits                  254402                       # Number of row buffer hits during reads
system.mem_ctrls2.writeRowHits                 144967                       # Number of row buffer hits during writes
system.mem_ctrls2.readRowHitRate                78.29                       # Row buffer hit rate for reads
system.mem_ctrls2.writeRowHitRate               71.84                       # Row buffer hit rate for writes
system.mem_ctrls2.avgGap                    249537.66                       # Average gap between requests
system.mem_ctrls2.pageHitRate                   75.82                       # Row buffer hit rate, read and write combined
system.mem_ctrls2.memoryStateTime::IDLE   28403746500                       # Time in different power states
system.mem_ctrls2.memoryStateTime::REF     4389060000                       # Time in different power states
system.mem_ctrls2.memoryStateTime::PRE_PDN            0                       # Time in different power states
system.mem_ctrls2.memoryStateTime::ACT    98647358500                       # Time in different power states
system.mem_ctrls2.memoryStateTime::ACT_PDN            0                       # Time in different power states
system.mem_ctrls2.actEnergy::0              488360880                       # Energy for activate commands per rank (pJ)
system.mem_ctrls2.actEnergy::1              474435360                       # Energy for activate commands per rank (pJ)
system.mem_ctrls2.preEnergy::0              266466750                       # Energy for precharge commands per rank (pJ)
system.mem_ctrls2.preEnergy::1              258868500                       # Energy for precharge commands per rank (pJ)
system.mem_ctrls2.readEnergy::0            1275354600                       # Energy for read commands per rank (pJ)
system.mem_ctrls2.readEnergy::1            1259013600                       # Energy for read commands per rank (pJ)
system.mem_ctrls2.writeEnergy::0            656819280                       # Energy for write commands per rank (pJ)
system.mem_ctrls2.writeEnergy::1            650831760                       # Energy for write commands per rank (pJ)
system.mem_ctrls2.refreshEnergy::0         8585001360                       # Energy for refresh commands per rank (pJ)
system.mem_ctrls2.refreshEnergy::1         8585001360                       # Energy for refresh commands per rank (pJ)
system.mem_ctrls2.actBackEnergy::0        49377808665                       # Energy for active background per rank (pJ)
system.mem_ctrls2.actBackEnergy::1        48449738655                       # Energy for active background per rank (pJ)
system.mem_ctrls2.preBackEnergy::0        35550102000                       # Energy for precharge background per rank (pJ)
system.mem_ctrls2.preBackEnergy::1        36364198500                       # Energy for precharge background per rank (pJ)
system.mem_ctrls2.totalEnergy::0          96199913535                       # Total energy per rank (pJ)
system.mem_ctrls2.totalEnergy::1          96042087735                       # Total energy per rank (pJ)
system.mem_ctrls2.averagePower::0          731.892506                       # Core power per rank (mW)
system.mem_ctrls2.averagePower::1          730.691762                       # Core power per rank (mW)
system.mem_ctrls3.bytes_read::ruby.dir_cntrl3     20775744                       # Number of bytes read from this memory
system.mem_ctrls3.bytes_read::total          20775744                       # Number of bytes read from this memory
system.mem_ctrls3.bytes_written::ruby.dir_cntrl3     12913984                       # Number of bytes written to this memory
system.mem_ctrls3.bytes_written::total       12913984                       # Number of bytes written to this memory
system.mem_ctrls3.num_reads::ruby.dir_cntrl3       324621                       # Number of read requests responded to by this memory
system.mem_ctrls3.num_reads::total             324621                       # Number of read requests responded to by this memory
system.mem_ctrls3.num_writes::ruby.dir_cntrl3       201781                       # Number of write requests responded to by this memory
system.mem_ctrls3.num_writes::total            201781                       # Number of write requests responded to by this memory
system.mem_ctrls3.bw_read::ruby.dir_cntrl3    158058596                       # Total read bandwidth from this memory (bytes/s)
system.mem_ctrls3.bw_read::total            158058596                       # Total read bandwidth from this memory (bytes/s)
system.mem_ctrls3.bw_write::ruby.dir_cntrl3     98247561                       # Write bandwidth from this memory (bytes/s)
system.mem_ctrls3.bw_write::total            98247561                       # Write bandwidth from this memory (bytes/s)
system.mem_ctrls3.bw_total::ruby.dir_cntrl3    256306157                       # Total bandwidth to/from this memory (bytes/s)
system.mem_ctrls3.bw_total::total           256306157                       # Total bandwidth to/from this memory (bytes/s)
system.mem_ctrls3.readReqs                     324621                       # Number of read requests accepted
system.mem_ctrls3.writeReqs                    201781                       # Number of write requests accepted
system.mem_ctrls3.readBursts                   324621                       # Number of DRAM read bursts, including those serviced by the write queue
system.mem_ctrls3.writeBursts                  201781                       # Number of DRAM write bursts, including those merged in the write queue
system.mem_ctrls3.bytesReadDRAM              20774912                       # Total number of bytes read from DRAM
system.mem_ctrls3.bytesReadWrQ                    832                       # Total number of bytes read from write queue
system.mem_ctrls3.bytesWritten               12913920                       # Total number of bytes written to DRAM
system.mem_ctrls3.bytesReadSys               20775744                       # Total read bytes from the system interface side
system.mem_ctrls3.bytesWrittenSys            12913984                       # Total written bytes from the system interface side
system.mem_ctrls3.servicedByWrQ                    13                       # Number of DRAM read bursts serviced by the write queue
system.mem_ctrls3.mergedWrBursts                    0                       # Number of DRAM write bursts merged with an existing one
system.mem_ctrls3.neitherReadNorWriteReqs            0                       # Number of requests that are neither read nor write
system.mem_ctrls3.perBankRdBursts::0            20050                       # Per bank write bursts
system.mem_ctrls3.perBankRdBursts::1            20651                       # Per bank write bursts
system.mem_ctrls3.perBankRdBursts::2            20160                       # Per bank write bursts
system.mem_ctrls3.perBankRdBursts::3            20702                       # Per bank write bursts
system.mem_ctrls3.perBankRdBursts::4            20308                       # Per bank write bursts
system.mem_ctrls3.perBankRdBursts::5            20520                       # Per bank write bursts
system.mem_ctrls3.perBankRdBursts::6            20428                       # Per bank write bursts
system.mem_ctrls3.perBankRdBursts::7            20469                       # Per bank write bursts
system.mem_ctrls3.perBankRdBursts::8            20145                       # Per bank write bursts
system.mem_ctrls3.perBankRdBursts::9            20381                       # Per bank write bursts
system.mem_ctrls3.perBankRdBursts::10           20196                       # Per bank write bursts
system.mem_ctrls3.perBankRdBursts::11           20539                       # Per bank write bursts
system.mem_ctrls3.perBankRdBursts::12           19978                       # Per bank write bursts
system.mem_ctrls3.perBankRdBursts::13           19843                       # Per bank write bursts
system.mem_ctrls3.perBankRdBursts::14           20099                       # Per bank write bursts
system.mem_ctrls3.perBankRdBursts::15           20139                       # Per bank write bursts
system.mem_ctrls3.perBankWrBursts::0            12669                       # Per bank write bursts
system.mem_ctrls3.perBankWrBursts::1            12628                       # Per bank write bursts
system.mem_ctrls3.perBankWrBursts::2            12542                       # Per bank write bursts
system.mem_ctrls3.perBankWrBursts::3            12755                       # Per bank write bursts
system.mem_ctrls3.perBankWrBursts::4            12595                       # Per bank write bursts
system.mem_ctrls3.perBankWrBursts::5            12705                       # Per bank write bursts
system.mem_ctrls3.perBankWrBursts::6            12634                       # Per bank write bursts
system.mem_ctrls3.perBankWrBursts::7            12819                       # Per bank write bursts
system.mem_ctrls3.perBankWrBursts::8            12525                       # Per bank write bursts
system.mem_ctrls3.perBankWrBursts::9            12742                       # Per bank write bursts
system.mem_ctrls3.perBankWrBursts::10           12519                       # Per bank write bursts
system.mem_ctrls3.perBankWrBursts::11           12484                       # Per bank write bursts
system.mem_ctrls3.perBankWrBursts::12           12464                       # Per bank write bursts
system.mem_ctrls3.perBankWrBursts::13           12460                       # Per bank write bursts
system.mem_ctrls3.perBankWrBursts::14           12714                       # Per bank write bursts
system.mem_ctrls3.perBankWrBursts::15           12525                       # Per bank write bursts
system.mem_ctrls3.numRdRetry                     2755                       # Number of times read queue was full causing retry
system.mem_ctrls3.numWrRetry                     1710                       # Number of times write queue was full causing retry
system.mem_ctrls3.totGap                 131442483000                       # Total gap between requests
system.mem_ctrls3.readPktSize::0                    0                       # Read request sizes (log2)
system.mem_ctrls3.readPktSize::1                    0                       # Read request sizes (log2)
system.mem_ctrls3.readPktSize::2                    0                       # Read request sizes (log2)
system.mem_ctrls3.readPktSize::3                    0                       # Read request sizes (log2)
system.mem_ctrls3.readPktSize::4                    0                       # Read request sizes (log2)
system.mem_ctrls3.readPktSize::5                    0                       # Read request sizes (log2)
system.mem_ctrls3.readPktSize::6               324621                       # Read request sizes (log2)
system.mem_ctrls3.writePktSize::0                   0                       # Write request sizes (log2)
system.mem_ctrls3.writePktSize::1                   0                       # Write request sizes (log2)
system.mem_ctrls3.writePktSize::2                   0                       # Write request sizes (log2)
system.mem_ctrls3.writePktSize::3                   0                       # Write request sizes (log2)
system.mem_ctrls3.writePktSize::4                   0                       # Write request sizes (log2)
system.mem_ctrls3.writePktSize::5                   0                       # Write request sizes (log2)
system.mem_ctrls3.writePktSize::6              201781                       # Write request sizes (log2)
system.mem_ctrls3.rdQLenPdf::0                 180972                       # What read queue length does an incoming req see
system.mem_ctrls3.rdQLenPdf::1                  15767                       # What read queue length does an incoming req see
system.mem_ctrls3.rdQLenPdf::2                  15965                       # What read queue length does an incoming req see
system.mem_ctrls3.rdQLenPdf::3                  14330                       # What read queue length does an incoming req see
system.mem_ctrls3.rdQLenPdf::4                  12961                       # What read queue length does an incoming req see
system.mem_ctrls3.rdQLenPdf::5                  11672                       # What read queue length does an incoming req see
system.mem_ctrls3.rdQLenPdf::6                  10546                       # What read queue length does an incoming req see
system.mem_ctrls3.rdQLenPdf::7                   9115                       # What read queue length does an incoming req see
system.mem_ctrls3.rdQLenPdf::8                   7967                       # What read queue length does an incoming req see
system.mem_ctrls3.rdQLenPdf::9                   6855                       # What read queue length does an incoming req see
system.mem_ctrls3.rdQLenPdf::10                  5770                       # What read queue length does an incoming req see
system.mem_ctrls3.rdQLenPdf::11                  4828                       # What read queue length does an incoming req see
system.mem_ctrls3.rdQLenPdf::12                  4009                       # What read queue length does an incoming req see
system.mem_ctrls3.rdQLenPdf::13                  3274                       # What read queue length does an incoming req see
system.mem_ctrls3.rdQLenPdf::14                  2654                       # What read queue length does an incoming req see
system.mem_ctrls3.rdQLenPdf::15                  2067                       # What read queue length does an incoming req see
system.mem_ctrls3.rdQLenPdf::16                  1839                       # What read queue length does an incoming req see
system.mem_ctrls3.rdQLenPdf::17                  1547                       # What read queue length does an incoming req see
system.mem_ctrls3.rdQLenPdf::18                  1369                       # What read queue length does an incoming req see
system.mem_ctrls3.rdQLenPdf::19                  1166                       # What read queue length does an incoming req see
system.mem_ctrls3.rdQLenPdf::20                  1020                       # What read queue length does an incoming req see
system.mem_ctrls3.rdQLenPdf::21                   834                       # What read queue length does an incoming req see
system.mem_ctrls3.rdQLenPdf::22                   759                       # What read queue length does an incoming req see
system.mem_ctrls3.rdQLenPdf::23                   653                       # What read queue length does an incoming req see
system.mem_ctrls3.rdQLenPdf::24                   598                       # What read queue length does an incoming req see
[...]
system.ruby.L2Cache_Controller.S_I.Ack_all::total           32                      
system.ruby.L2Cache_Controller.ISS.Mem_Data |       25519      5.06%      5.06% |       15488      3.07%      8.13% |       15519      3.08%     11.21% |       15471      3.07%     14.28% |       15443      3.06%     17.34% |       15422      3.06%     20.40% |       15427      3.06%     23.46% |       15428      3.06%     26.52% |       15459      3.07%     29.58% |       15475      3.07%     32.65% |       15498      3.07%     35.73% |       15423      3.06%     38.78% |       15434      3.06%     41.85% |       15441      3.06%     44.91% |       15449      3.06%     47.97% |       15415      3.06%     51.03% |       15427      3.06%     54.09% |       15418      3.06%     57.14% |       15443      3.06%     60.21% |       15425      3.06%     63.27% |       15448      3.06%     66.33% |       15461      3.07%     69.40% |       15459      3.07%     72.46% |       15437      3.06%     75.52% |       15446      3.06%     78.59% |       15443      3.06%     81.65% |       15427      3.06%     84.71% |       15405      3.06%     87.76% |       15445      3.06%     90.83% |       15409      3.06%     93.88% |       15411      3.06%     96.94% |       15440      3.06%    100.00%
system.ruby.L2Cache_Controller.ISS.Mem_Data::total       504255                      
system.ruby.L2Cache_Controller.IS.Mem_Data |         503      3.21%      3.21% |         454      2.89%      6.10% |         438      2.79%      8.89% |         449      2.86%     11.75% |         449      2.86%     14.62% |         430      2.74%     17.36% |         472      3.01%     20.37% |         491      3.13%     23.50% |         505      3.22%     26.72% |         445      2.84%     29.55% |         487      3.10%     32.66% |         498      3.17%     35.83% |         551      3.51%     39.34% |         523      3.33%     42.68% |         510      3.25%     45.93% |         492      3.14%     49.07% |         515      3.28%     52.35% |         532      3.39%     55.74% |         529      3.37%     59.11% |         483      3.08%     62.19% |         473      3.02%     65.21% |         523      3.33%     68.54% |         478      3.05%     71.59% |         451      2.87%     74.46% |         518      3.30%     77.77% |         578      3.68%     81.45% |         522      3.33%     84.78% |         479      3.05%     87.83% |         456      2.91%     90.74% |         512      3.26%     94.00% |         488      3.11%     97.11% |         453      2.89%    100.00%
system.ruby.L2Cache_Controller.IS.Mem_Data::total        15687                      
system.ruby.L2Cache_Controller.IM.Mem_Data |       24756      3.13%      3.13% |       24665      3.12%      6.26% |       24674      3.12%      9.38% |       24679      3.13%     12.51% |       24670      3.12%     15.63% |       24674      3.12%     18.76% |       24675      3.12%     21.88% |       24666      3.12%     25.00% |       24681      3.13%     28.13% |       24680      3.13%     31.25% |       24663      3.12%     34.38% |       24687      3.13%     37.50% |       24674      3.12%     40.63% |       24671      3.12%     43.75% |       24669      3.12%     46.88% |       24662      3.12%     50.00% |       24683      3.13%     53.13% |       24680      3.13%     56.25% |       24677      3.12%     59.38% |       24675      3.12%     62.50% |       24689      3.13%     65.63% |       24696      3.13%     68.75% |       24670      3.12%     71.88% |       24674      3.12%     75.00% |       24686      3.13%     78.13% |       24680      3.13%     81.25% |       24683      3.13%     84.38% |       24670      3.12%     87.50% |       24671      3.12%     90.63% |       24672      3.12%     93.75% |       24681      3.13%     96.88% |       24668      3.12%    100.00%
system.ruby.L2Cache_Controller.IM.Mem_Data::total       789701                      
system.ruby.L2Cache_Controller.SS_MB.Exclusive_Unblock |           2      4.17%      4.17% |           4      8.33%     12.50% |           5     10.42%     22.92% |           3      6.25%     29.17% |           0      0.00%     29.17% |           0      0.00%     29.17% |           0      0.00%     29.17% |           0      0.00%     29.17% |           1      2.08%     31.25% |           1      2.08%     33.33% |           0      0.00%     33.33% |           1      2.08%     35.42% |           6     12.50%     47.92% |           0      0.00%     47.92% |           2      4.17%     52.08% |           0      0.00%     52.08% |           0      0.00%     52.08% |           0      0.00%     52.08% |           7     14.58%     66.67% |           5     10.42%     77.08% |           1      2.08%     79.17% |           0      0.00%     79.17% |           0      0.00%     79.17% |           0      0.00%     79.17% |           1      2.08%     81.25% |           1      2.08%     83.33% |           1      2.08%     85.42% |           1      2.08%     87.50% |           5     10.42%     97.92% |           0      0.00%     97.92% |           1      2.08%    100.00% |           0      0.00%    100.00%
system.ruby.L2Cache_Controller.SS_MB.Exclusive_Unblock::total           48                      
system.ruby.L2Cache_Controller.MT_MB.L1_PUTX |           7    100.00%    100.00% |           0      0.00%    100.00% |           0      0.00%    100.00% |           0      0.00%    100.00% |           0      0.00%    100.00% |           0      0.00%    100.00% |           0      0.00%    100.00% |           0      0.00%    100.00% |           0      0.00%    100.00% |           0      0.00%    100.00% |           0      0.00%    100.00% |           0      0.00%    100.00% |           0      0.00%    100.00% |           0      0.00%    100.00% |           0      0.00%    100.00% |           0      0.00%    100.00% |           0      0.00%    100.00% |           0      0.00%    100.00% |           0      0.00%    100.00% |           0      0.00%    100.00% |           0      0.00%    100.00% |           0      0.00%    100.00% |           0      0.00%    100.00% |           0      0.00%    100.00% |           0      0.00%    100.00% |           0      0.00%    100.00% |           0      0.00%    100.00% |           0      0.00%    100.00% |           0      0.00%    100.00% |           0      0.00%    100.00% |           0      0.00%    100.00% |           0      0.00%    100.00%
system.ruby.L2Cache_Controller.MT_MB.L1_PUTX::total            7                      
system.ruby.L2Cache_Controller.MT_MB.Exclusive_Unblock |      171793      9.58%      9.58% |       54287      3.03%     12.60% |       49287      2.75%     15.35% |       52996      2.95%     18.30% |       53511      2.98%     21.29% |       49520      2.76%     24.05% |       45956      2.56%     26.61% |       45968      2.56%     29.17% |       51546      2.87%     32.04% |       49822      2.78%     34.82% |       54064      3.01%     37.83% |       51033      2.84%     40.68% |       48288      2.69%     43.37% |       46917      2.62%     45.99% |       47886      2.67%     48.65% |       46617      2.60%     51.25% |       50571      2.82%     54.07% |       48372      2.70%     56.77% |       49898      2.78%     59.55% |       54012      3.01%     62.56% |       54529      3.04%     65.60% |       63393      3.53%     69.13% |       58005      3.23%     72.37% |       53248      2.97%     75.33% |       53493      2.98%     78.32% |       51440      2.87%     81.18% |       52512      2.93%     84.11% |       52308      2.92%     87.03% |       55508      3.09%     90.12% |       55167      3.08%     93.20% |       63474      3.54%     96.73% |       58602      3.27%    100.00%
system.ruby.L2Cache_Controller.MT_MB.Exclusive_Unblock::total      1794023                      
system.ruby.L2Cache_Controller.MT_IIB.WB_Data |           0      0.00%      0.00% |           0      0.00%      0.00% |           1      7.14%      7.14% |           1      7.14%     14.29% |           1      7.14%     21.43% |           0      0.00%     21.43% |           1      7.14%     28.57% |           0      0.00%     28.57% |           1      7.14%     35.71% |           1      7.14%     42.86% |           1      7.14%     50.00% |           1      7.14%     57.14% |           1      7.14%     64.29% |           0      0.00%     64.29% |           1      7.14%     71.43% |           1      7.14%     78.57% |           1      7.14%     85.71% |           1      7.14%     92.86% |           1      7.14%    100.00% |           0      0.00%    100.00% |           0      0.00%    100.00% |           0      0.00%    100.00% |           0      0.00%    100.00% |           0      0.00%    100.00% |           0      0.00%    100.00% |           0      0.00%    100.00% |           0      0.00%    100.00% |           0      0.00%    100.00% |           0      0.00%    100.00% |           0      0.00%    100.00% |           0      0.00%    100.00% |           0      0.00%    100.00%
system.ruby.L2Cache_Controller.MT_IIB.WB_Data::total           14                      
system.ruby.L2Cache_Controller.MT_IIB.WB_Data_clean |           4    100.00%    100.00% |           0      0.00%    100.00% |           0      0.00%    100.00% |           0      0.00%    100.00% |           0      0.00%    100.00% |           0      0.00%    100.00% |           0      0.00%    100.00% |           0      0.00%    100.00% |           0      0.00%    100.00% |           0      0.00%    100.00% |           0      0.00%    100.00% |           0      0.00%    100.00% |           0      0.00%    100.00% |           0      0.00%    100.00% |           0      0.00%    100.00% |           0      0.00%    100.00% |           0      0.00%    100.00% |           0      0.00%    100.00% |           0      0.00%    100.00% |           0      0.00%    100.00% |           0      0.00%    100.00% |           0      0.00%    100.00% |           0      0.00%    100.00% |           0      0.00%    100.00% |           0      0.00%    100.00% |           0      0.00%    100.00% |           0      0.00%    100.00% |           0      0.00%    100.00% |           0      0.00%    100.00% |           0      0.00%    100.00% |           0      0.00%    100.00% |           0      0.00%    100.00%
system.ruby.L2Cache_Controller.MT_IIB.WB_Data_clean::total            4                      
system.ruby.L2Cache_Controller.MT_IIB.Unblock |           0      0.00%      0.00% |           0      0.00%      0.00% |           0      0.00%      0.00% |           0      0.00%      0.00% |           0      0.00%      0.00% |           0      0.00%      0.00% |           0      0.00%      0.00% |           1     50.00%     50.00% |           0      0.00%     50.00% |           0      0.00%     50.00% |           0      0.00%     50.00% |           0      0.00%     50.00% |           0      0.00%     50.00% |           1     50.00%    100.00% |           0      0.00%    100.00% |           0      0.00%    100.00% |           0      0.00%    100.00% |           0      0.00%    100.00% |           0      0.00%    100.00% |           0      0.00%    100.00% |           0      0.00%    100.00% |           0      0.00%    100.00% |           0      0.00%    100.00% |           0      0.00%    100.00% |           0      0.00%    100.00% |           0      0.00%    100.00% |           0      0.00%    100.00% |           0      0.00%    100.00% |           0      0.00%    100.00% |           0      0.00%    100.00% |           0      0.00%    100.00% |           0      0.00%    100.00%
system.ruby.L2Cache_Controller.MT_IIB.Unblock::total            2                      
system.ruby.L2Cache_Controller.MT_IB.WB_Data |           0      0.00%      0.00% |           0      0.00%      0.00% |           0      0.00%      0.00% |           0      0.00%      0.00% |           0      0.00%      0.00% |           0      0.00%      0.00% |           0      0.00%      0.00% |           1     50.00%     50.00% |           0      0.00%     50.00% |           0      0.00%     50.00% |           0      0.00%     50.00% |           0      0.00%     50.00% |           0      0.00%     50.00% |           1     50.00%    100.00% |           0      0.00%    100.00% |           0      0.00%    100.00% |           0      0.00%    100.00% |           0      0.00%    100.00% |           0      0.00%    100.00% |           0      0.00%    100.00% |           0      0.00%    100.00% |           0      0.00%    100.00% |           0      0.00%    100.00% |           0      0.00%    100.00% |           0      0.00%    100.00% |           0      0.00%    100.00% |           0      0.00%    100.00% |           0      0.00%    100.00% |           0      0.00%    100.00% |           0      0.00%    100.00% |           0      0.00%    100.00% |           0      0.00%    100.00%
system.ruby.L2Cache_Controller.MT_IB.WB_Data::total            2                      
system.ruby.L2Cache_Controller.MT_SB.Unblock |           4     22.22%     22.22% |           0      0.00%     22.22% |           1      5.56%     27.78% |           1      5.56%     33.33% |           1      5.56%     38.89% |           0      0.00%     38.89% |           1      5.56%     44.44% |           0      0.00%     44.44% |           1      5.56%     50.00% |           1      5.56%     55.56% |           1      5.56%     61.11% |           1      5.56%     66.67% |           1      5.56%     72.22% |           0      0.00%     72.22% |           1      5.56%     77.78% |           1      5.56%     83.33% |           1      5.56%     88.89% |           1      5.56%     94.44% |           1      5.56%    100.00% |           0      0.00%    100.00% |           0      0.00%    100.00% |           0      0.00%    100.00% |           0      0.00%    100.00% |           0      0.00%    100.00% |           0      0.00%    100.00% |           0      0.00%    100.00% |           0      0.00%    100.00% |           0      0.00%    100.00% |           0      0.00%    100.00% |           0      0.00%    100.00% |           0      0.00%    100.00% |           0      0.00%    100.00%
system.ruby.L2Cache_Controller.MT_SB.Unblock::total           18                      
system.ruby.SimicsNetworkPortInterface_Controller.MessageSend |      221168     22.16%     22.16% |      499008     50.00%     72.16% |       34661      3.47%     75.63% |       35406      3.55%     79.18% |       35166      3.52%     82.70% |       34817      3.49%     86.19% |       34760      3.48%     89.68% |       35907      3.60%     93.27% |       33461      3.35%     96.63% |       33662      3.37%    100.00% |           0      0.00%    100.00% |           0      0.00%    100.00% |           0      0.00%    100.00% |           0      0.00%    100.00% |           0      0.00%    100.00% |           0      0.00%    100.00% |           0      0.00%    100.00% |           0      0.00%    100.00% |           0      0.00%    100.00% |           0      0.00%    100.00% |           0      0.00%    100.00% |           0      0.00%    100.00% |           0      0.00%    100.00% |           0      0.00%    100.00% |           0      0.00%    100.00% |           0      0.00%    100.00% |           0      0.00%    100.00% |           0      0.00%    100.00% |           0      0.00%    100.00% |           0      0.00%    100.00% |           0      0.00%    100.00% |           0      0.00%    100.00%
system.ruby.SimicsNetworkPortInterface_Controller.MessageSend::total       998016                      
system.ruby.SimicsNetworkPortInterface_Controller.MessageRecv |      221168     22.16%     22.16% |      499008     50.00%     72.16% |       34661      3.47%     75.63% |       35406      3.55%     79.18% |       35166      3.52%     82.70% |       34817      3.49%     86.19% |       34760      3.48%     89.68% |       35907      3.60%     93.27% |       33461      3.35%     96.63% |       33662      3.37%    100.00% |           0      0.00%    100.00% |           0      0.00%    100.00% |           0      0.00%    100.00% |           0      0.00%    100.00% |           0      0.00%    100.00% |           0      0.00%    100.00% |           0      0.00%    100.00% |           0      0.00%    100.00% |           0      0.00%    100.00% |           0      0.00%    100.00% |           0      0.00%    100.00% |           0      0.00%    100.00% |           0      0.00%    100.00% |           0      0.00%    100.00% |           0      0.00%    100.00% |           0      0.00%    100.00% |           0      0.00%    100.00% |           0      0.00%    100.00% |           0      0.00%    100.00% |           0      0.00%    100.00% |           0      0.00%    100.00% |           0      0.00%    100.00%
system.ruby.SimicsNetworkPortInterface_Controller.MessageRecv::total       998016                      
system.ruby.SimicsNetworkPortInterface_Controller.A.MessageSend |      221168     22.16%     22.16% |      499008     50.00%     72.16% |       34661      3.47%     75.63% |       35406      3.55%     79.18% |       35166      3.52%     82.70% |       34817      3.49%     86.19% |       34760      3.48%     89.68% |       35907      3.60%     93.27% |       33461      3.35%     96.63% |       33662      3.37%    100.00% |           0      0.00%    100.00% |           0      0.00%    100.00% |           0      0.00%    100.00% |           0      0.00%    100.00% |           0      0.00%    100.00% |           0      0.00%    100.00% |           0      0.00%    100.00% |           0      0.00%    100.00% |           0      0.00%    100.00% |           0      0.00%    100.00% |           0      0.00%    100.00% |           0      0.00%    100.00% |           0      0.00%    100.00% |           0      0.00%    100.00% |           0      0.00%    100.00% |           0      0.00%    100.00% |           0      0.00%    100.00% |           0      0.00%    100.00% |           0      0.00%    100.00% |           0      0.00%    100.00% |           0      0.00%    100.00% |           0      0.00%    100.00%
system.ruby.SimicsNetworkPortInterface_Controller.A.MessageSend::total       998016                      
system.ruby.SimicsNetworkPortInterface_Controller.A.MessageRecv |      221168     22.16%     22.16% |      499008     50.00%     72.16% |       34661      3.47%     75.63% |       35406      3.55%     79.18% |       35166      3.52%     82.70% |       34817      3.49%     86.19% |       34760      3.48%     89.68% |       35907      3.60%     93.27% |       33461      3.35%     96.63% |       33662      3.37%    100.00% |           0      0.00%    100.00% |           0      0.00%    100.00% |           0      0.00%    100.00% |           0      0.00%    100.00% |           0      0.00%    100.00% |           0      0.00%    100.00% |           0      0.00%    100.00% |           0      0.00%    100.00% |           0      0.00%    100.00% |           0      0.00%    100.00% |           0      0.00%    100.00% |           0      0.00%    100.00% |           0      0.00%    100.00% |           0      0.00%    100.00% |           0      0.00%    100.00% |           0      0.00%    100.00% |           0      0.00%    100.00% |           0      0.00%    100.00% |           0      0.00%    100.00% |           0      0.00%    100.00% |           0      0.00%    100.00% |           0      0.00%    100.00%
system.ruby.SimicsNetworkPortInterface_Controller.A.MessageRecv::total       998016                      
system.switch_cpus.kern.inst.arm                    0                       # number of arm instructions executed
system.switch_cpus.kern.inst.quiesce                0                       # number of quiesce instructions executed

---------- End Simulation Statistics   ----------
