
---------- Begin Simulation Statistics ----------
sim_seconds                                  0.130953                       # Number of seconds simulated
sim_ticks                                130952625000                       # Number of ticks simulated
final_tick                               5307120703500                       # Number of ticks from beginning of simulation (restored from checkpoints and never reset)
sim_freq                                 1000000000000                       # Frequency of simulated ticks
host_inst_rate                                  34922                       # Simulator instruction rate (inst/s)
host_op_rate                                    60241                       # Simulator op (including micro ops) rate (op/s)
host_tick_rate                              106213062                       # Simulator tick rate (ticks/s)
host_mem_usage                                3691744                       # Number of bytes of host memory used
host_seconds                                  1232.92                       # Real time elapsed on the host
sim_insts                                    43055737                       # Number of instructions simulated
sim_ops                                      74272703                       # Number of ops (including micro ops) simulated
system.voltage_domain.voltage                       1                       # Voltage in Volts
system.clk_domain.clock                           500                       # Clock period in ticks
system.mem_ctrls0.bytes_read::ruby.dir_cntrl0     21427008                       # Number of bytes read from this memory
system.mem_ctrls0.bytes_read::total          21427008                       # Number of bytes read from this memory
system.mem_ctrls0.bytes_written::ruby.dir_cntrl0     13548096                       # Number of bytes written to this memory
system.mem_ctrls0.bytes_written::total       13548096                       # Number of bytes written to this memory
system.mem_ctrls0.num_reads::ruby.dir_cntrl0       334797                       # Number of read requests responded to by this memory
system.mem_ctrls0.num_reads::total             334797                       # Number of read requests responded to by this memory
system.mem_ctrls0.num_writes::ruby.dir_cntrl0       211689                       # Number of write requests responded to by this memory
system.mem_ctrls0.num_writes::total            211689                       # Number of write requests responded to by this memory
system.mem_ctrls0.bw_read::ruby.dir_cntrl0    163624120                       # Total read bandwidth from this memory (bytes/s)
system.mem_ctrls0.bw_read::total            163624120                       # Total read bandwidth from this memory (bytes/s)
system.mem_ctrls0.bw_write::ruby.dir_cntrl0    103457995                       # Write bandwidth from this memory (bytes/s)
system.mem_ctrls0.bw_write::total           103457995                       # Write bandwidth from this memory (bytes/s)
system.mem_ctrls0.bw_total::ruby.dir_cntrl0    267082115                       # Total bandwidth to/from this memory (bytes/s)
system.mem_ctrls0.bw_total::total           267082115                       # Total bandwidth to/from this memory (bytes/s)
system.mem_ctrls0.readReqs                     334797                       # Number of read requests accepted
system.mem_ctrls0.writeReqs                    211689                       # Number of write requests accepted
system.mem_ctrls0.readBursts                   334797                       # Number of DRAM read bursts, including those serviced by the write queue
system.mem_ctrls0.writeBursts                  211689                       # Number of DRAM write bursts, including those merged in the write queue
system.mem_ctrls0.bytesReadDRAM              21425536                       # Total number of bytes read from DRAM
system.mem_ctrls0.bytesReadWrQ                   1472                       # Total number of bytes read from write queue
system.mem_ctrls0.bytesWritten               13547968                       # Total number of bytes written to DRAM
system.mem_ctrls0.bytesReadSys               21427008                       # Total read bytes from the system interface side
system.mem_ctrls0.bytesWrittenSys            13548096                       # Total written bytes from the system interface side
system.mem_ctrls0.servicedByWrQ                    23                       # Number of DRAM read bursts serviced by the write queue
system.mem_ctrls0.mergedWrBursts                    0                       # Number of DRAM write bursts merged with an existing one
system.mem_ctrls0.neitherReadNorWriteReqs            0                       # Number of requests that are neither read nor write
system.mem_ctrls0.perBankRdBursts::0            20666                       # Per bank write bursts
system.mem_ctrls0.perBankRdBursts::1            21290                       # Per bank write bursts
system.mem_ctrls0.perBankRdBursts::2            20863                       # Per bank write bursts
system.mem_ctrls0.perBankRdBursts::3            21330                       # Per bank write bursts
system.mem_ctrls0.perBankRdBursts::4            20935                       # Per bank write bursts
system.mem_ctrls0.perBankRdBursts::5            21141                       # Per bank write bursts
system.mem_ctrls0.perBankRdBursts::6            21033                       # Per bank write bursts
system.mem_ctrls0.perBankRdBursts::7            21028                       # Per bank write bursts
system.mem_ctrls0.perBankRdBursts::8            20820                       # Per bank write bursts
system.mem_ctrls0.perBankRdBursts::9            21025                       # Per bank write bursts
system.mem_ctrls0.perBankRdBursts::10           20782                       # Per bank write bursts
system.mem_ctrls0.perBankRdBursts::11           21175                       # Per bank write bursts
system.mem_ctrls0.perBankRdBursts::12           20638                       # Per bank write bursts
system.mem_ctrls0.perBankRdBursts::13           20542                       # Per bank write bursts
system.mem_ctrls0.perBankRdBursts::14           20753                       # Per bank write bursts
system.mem_ctrls0.perBankRdBursts::15           20753                       # Per bank write bursts
system.mem_ctrls0.perBankWrBursts::0            13283                       # Per bank write bursts
system.mem_ctrls0.perBankWrBursts::1            13243                       # Per bank write bursts
system.mem_ctrls0.perBankWrBursts::2            13158                       # Per bank write bursts
system.mem_ctrls0.perBankWrBursts::3            13373                       # Per bank write bursts
system.mem_ctrls0.perBankWrBursts::4            13200                       # Per bank write bursts
system.mem_ctrls0.perBankWrBursts::5            13321                       # Per bank write bursts
system.mem_ctrls0.perBankWrBursts::6            13245                       # Per bank write bursts
system.mem_ctrls0.perBankWrBursts::7            13438                       # Per bank write bursts
system.mem_ctrls0.perBankWrBursts::8            13152                       # Per bank write bursts
system.mem_ctrls0.perBankWrBursts::9            13377                       # Per bank write bursts
system.mem_ctrls0.perBankWrBursts::10           13160                       # Per bank write bursts
system.mem_ctrls0.perBankWrBursts::11           13094                       # Per bank write bursts
system.mem_ctrls0.perBankWrBursts::12           13061                       # Per bank write bursts
system.mem_ctrls0.perBankWrBursts::13           13071                       # Per bank write bursts
system.mem_ctrls0.perBankWrBursts::14           13358                       # Per bank write bursts
system.mem_ctrls0.perBankWrBursts::15           13153                       # Per bank write bursts
system.mem_ctrls0.numRdRetry                     3348                       # Number of times read queue was full causing retry
system.mem_ctrls0.numWrRetry                     2278                       # Number of times write queue was full causing retry
system.mem_ctrls0.totGap                 130952286500                       # Total gap between requests
system.mem_ctrls0.readPktSize::0                    0                       # Read request sizes (log2)
system.mem_ctrls0.readPktSize::1                    0                       # Read request sizes (log2)
system.mem_ctrls0.readPktSize::2                    0                       # Read request sizes (log2)
system.mem_ctrls0.readPktSize::3                    0                       # Read request sizes (log2)
system.mem_ctrls0.readPktSize::4                    0                       # Read request sizes (log2)
system.mem_ctrls0.readPktSize::5                    0                       # Read request sizes (log2)
system.mem_ctrls0.readPktSize::6               334797                       # Read request sizes (log2)
system.mem_ctrls0.writePktSize::0                   0                       # Write request sizes (log2)
system.mem_ctrls0.writePktSize::1                   0                       # Write request sizes (log2)
system.mem_ctrls0.writePktSize::2                   0                       # Write request sizes (log2)
system.mem_ctrls0.writePktSize::3                   0                       # Write request sizes (log2)
system.mem_ctrls0.writePktSize::4                   0                       # Write request sizes (log2)
system.mem_ctrls0.writePktSize::5                   0                       # Write request sizes (log2)
system.mem_ctrls0.writePktSize::6              211689                       # Write request sizes (log2)
system.mem_ctrls0.rdQLenPdf::0                 177890                       # What read queue length does an incoming req see
system.mem_ctrls0.rdQLenPdf::1                   9325                       # What read queue length does an incoming req see
system.mem_ctrls0.rdQLenPdf::2                   7959                       # What read queue length does an incoming req see
system.mem_ctrls0.rdQLenPdf::3                   7306                       # What read queue length does an incoming req see
system.mem_ctrls0.rdQLenPdf::4                   8025                       # What read queue length does an incoming req see
system.mem_ctrls0.rdQLenPdf::5                   8778                       # What read queue length does an incoming req see
system.mem_ctrls0.rdQLenPdf::6                   9327                       # What read queue length does an incoming req see
system.mem_ctrls0.rdQLenPdf::7                   9673                       # What read queue length does an incoming req see
system.mem_ctrls0.rdQLenPdf::8                   9940                       # What read queue length does an incoming req see
system.mem_ctrls0.rdQLenPdf::9                   9666                       # What read queue length does an incoming req see
system.mem_ctrls0.rdQLenPdf::10                  9143                       # What read queue length does an incoming req see
system.mem_ctrls0.rdQLenPdf::11                  8462                       # What read queue length does an incoming req see
system.mem_ctrls0.rdQLenPdf::12                  7640                       # What read queue length does an incoming req see
system.mem_ctrls0.rdQLenPdf::13                  6699                       # What read queue length does an incoming req see
system.mem_ctrls0.rdQLenPdf::14                  5945                       # What read queue length does an incoming req see
system.mem_ctrls0.rdQLenPdf::15                  5194                       # What read queue length does an incoming req see
system.mem_ctrls0.rdQLenPdf::16                  4571                       # What read queue length does an incoming req see
system.mem_ctrls0.rdQLenPdf::17                  3921                       # What read queue length does an incoming req see
system.mem_ctrls0.rdQLenPdf::18                  3406                       # What read queue length does an incoming req see
system.mem_ctrls0.rdQLenPdf::19                  3015                       # What read queue length does an incoming req see
system.mem_ctrls0.rdQLenPdf::20                  2536                       # What read queue length does an incoming req see
system.mem_ctrls0.rdQLenPdf::21                  2119                       # What read queue length does an incoming req see
system.mem_ctrls0.rdQLenPdf::22                  1904                       # What read queue length does an incoming req see
system.mem_ctrls0.rdQLenPdf::23                  1607                       # What read queue length does an incoming req see
system.mem_ctrls0.rdQLenPdf::24                  1389                       # What read queue length does an incoming req see
system.mem_ctrls0.rdQLenPdf::25                  1175                       # What read queue length does an incoming req see
system.mem_ctrls0.rdQLenPdf::26                  1070                       # What read queue length does an incoming req see
system.mem_ctrls0.rdQLenPdf::27                   902                       # What read queue length does an incoming req see
system.mem_ctrls0.rdQLenPdf::28                   784                       # What read queue length does an incoming req see
system.mem_ctrls0.rdQLenPdf::29                   677                       # What read queue length does an incoming req see
system.mem_ctrls0.rdQLenPdf::30                   659                       # What read queue length does an incoming req see
system.mem_ctrls0.rdQLenPdf::31                  4067                       # What read queue length does an incoming req see
system.mem_ctrls0.wrQLenPdf::0                  38072                       # What write queue length does an incoming req see
system.mem_ctrls0.wrQLenPdf::1                  39573                       # What write queue length does an incoming req see
system.mem_ctrls0.wrQLenPdf::2                  40180                       # What write queue length does an incoming req see
system.mem_ctrls0.wrQLenPdf::3                  40287                       # What write queue length does an incoming req see
system.mem_ctrls0.wrQLenPdf::4                  40056                       # What write queue length does an incoming req see
system.mem_ctrls0.wrQLenPdf::5                   4590                       # What write queue length does an incoming req see
system.mem_ctrls0.wrQLenPdf::6                   4300                       # What write queue length does an incoming req see
system.mem_ctrls0.wrQLenPdf::7                   4631                       # What write queue length does an incoming req see
system.mem_ctrls0.bytesPerActivate::samples       148534                       # Bytes accessed per row activation
system.mem_ctrls0.bytesPerActivate::mean   235.451439                       # Bytes accessed per row activation
system.mem_ctrls0.bytesPerActivate::gmean   170.789641                       # Bytes accessed per row activation
system.mem_ctrls0.bytesPerActivate::stdev   201.431367                       # Bytes accessed per row activation
system.mem_ctrls0.bytesPerActivate::0-127        49801     33.53%     33.53% # Bytes accessed per row activation
system.mem_ctrls0.bytesPerActivate::128-255        28993     19.52%     53.05% # Bytes accessed per row activation
system.mem_ctrls0.bytesPerActivate::256-383        52501     35.35%     88.39% # Bytes accessed per row activation
system.mem_ctrls0.bytesPerActivate::384-511         5572      3.75%     92.15% # Bytes accessed per row activation
system.mem_ctrls0.bytesPerActivate::512-639         3548      2.39%     94.53% # Bytes accessed per row activation
system.mem_ctrls0.bytesPerActivate::640-767         2199      1.48%     96.01% # Bytes accessed per row activation
system.mem_ctrls0.bytesPerActivate::768-895         1284      0.86%     96.88% # Bytes accessed per row activation
system.mem_ctrls0.bytesPerActivate::896-1023          980      0.66%     97.54% # Bytes accessed per row activation
system.mem_ctrls0.bytesPerActivate::1024-1151         3656      2.46%    100.00% # Bytes accessed per row activation
system.mem_ctrls0.bytesPerActivate::total       148534                       # Bytes accessed per row activation
system.mem_ctrls0.rdPerTurnAround::samples        38414                       # Reads before turning the bus around for writes
system.mem_ctrls0.rdPerTurnAround::mean      8.714609                       # Reads before turning the bus around for writes
system.mem_ctrls0.rdPerTurnAround::stdev    24.003982                       # Reads before turning the bus around for writes
system.mem_ctrls0.rdPerTurnAround::0-127        38366     99.88%     99.88% # Reads before turning the bus around for writes
system.mem_ctrls0.rdPerTurnAround::128-255           47      0.12%    100.00% # Reads before turning the bus around for writes
system.mem_ctrls0.rdPerTurnAround::3968-4095            1      0.00%    100.00% # Reads before turning the bus around for writes
system.mem_ctrls0.rdPerTurnAround::total        38414                       # Reads before turning the bus around for writes
system.mem_ctrls0.wrPerTurnAround::samples        38414                       # Writes before turning the bus around for reads
system.mem_ctrls0.wrPerTurnAround::mean      5.510673                       # Writes before turning the bus around for reads
system.mem_ctrls0.wrPerTurnAround::gmean     5.350518                       # Writes before turning the bus around for reads
system.mem_ctrls0.wrPerTurnAround::stdev     1.762136                       # Writes before turning the bus around for reads
system.mem_ctrls0.wrPerTurnAround::4-7          35705     92.95%     92.95% # Writes before turning the bus around for reads
system.mem_ctrls0.wrPerTurnAround::8-11          1682      4.38%     97.33% # Writes before turning the bus around for reads
system.mem_ctrls0.wrPerTurnAround::12-15          578      1.50%     98.83% # Writes before turning the bus around for reads
system.mem_ctrls0.wrPerTurnAround::16-19          449      1.17%    100.00% # Writes before turning the bus around for reads
system.mem_ctrls0.wrPerTurnAround::total        38414                       # Writes before turning the bus around for reads
system.mem_ctrls0.totQLat                 17319965021                       # Total ticks spent queuing
system.mem_ctrls0.totMemAccLat            23596977521                       # Total ticks spent from burst creation until serviced by the DRAM
system.mem_ctrls0.totBusLat                1673870000                       # Total ticks spent in databus transfers
system.mem_ctrls0.avgQLat                    51736.29                       # Average queueing delay per DRAM burst
system.mem_ctrls0.avgBusLat                   5000.00                       # Average bus latency per DRAM burst
system.mem_ctrls0.avgMemAccLat               70486.29                       # Average memory access latency per DRAM burst
system.mem_ctrls0.avgRdBW                      163.61                       # Average DRAM read bandwidth in MiByte/s
system.mem_ctrls0.avgWrBW                      103.46                       # Average achieved write bandwidth in MiByte/s
system.mem_ctrls0.avgRdBWSys                   163.62                       # Average system read bandwidth in MiByte/s
system.mem_ctrls0.avgWrBWSys                   103.46                       # Average system write bandwidth in MiByte/s
system.mem_ctrls0.peakBW                     12800.00                       # Theoretical peak bandwidth in MiByte/s
system.mem_ctrls0.busUtil                        2.09                       # Data bus utilization in percentage
system.mem_ctrls0.busUtilRead                    1.28                       # Data bus utilization in percentage for reads
system.mem_ctrls0.busUtilWrite                   0.81                       # Data bus utilization in percentage for writes
system.mem_ctrls0.avgRdQLen                      1.15                       # Average read queue length when enqueuing
system.mem_ctrls0.avgWrQLen                      2.96                       # Average write queue length when enqueuing
system.mem_ctrls0.readRowHits                  255921                       # Number of row buffer hits during reads
system.mem_ctrls0.writeRowHits                 141996                       # Number of row buffer hits during writes
system.mem_ctrls0.readRowHitRate                76.45                       # Row buffer hit rate for reads
system.mem_ctrls0.writeRowHitRate               67.08                       # Row buffer hit rate for writes
system.mem_ctrls0.avgGap                    239626.06                       # Average gap between requests
system.mem_ctrls0.pageHitRate                   72.82                       # Row buffer hit rate, read and write combined
system.mem_ctrls0.memoryStateTime::IDLE   28041641000                       # Time in different power states
system.mem_ctrls0.memoryStateTime::REF     4372680000                       # Time in different power states
system.mem_ctrls0.memoryStateTime::PRE_PDN            0                       # Time in different power states
system.mem_ctrls0.memoryStateTime::ACT    98535354000                       # Time in different power states
system.mem_ctrls0.memoryStateTime::ACT_PDN            0                       # Time in different power states
system.mem_ctrls0.actEnergy::0              568678320                       # Energy for activate commands per rank (pJ)
system.mem_ctrls0.actEnergy::1              554216040                       # Energy for activate commands per rank (pJ)
system.mem_ctrls0.preEnergy::0              310290750                       # Energy for precharge commands per rank (pJ)
system.mem_ctrls0.preEnergy::1              302399625                       # Energy for precharge commands per rank (pJ)
system.mem_ctrls0.readEnergy::0            1312576200                       # Energy for read commands per rank (pJ)
system.mem_ctrls0.readEnergy::1            1298528400                       # Energy for read commands per rank (pJ)
system.mem_ctrls0.writeEnergy::0            688564800                       # Energy for write commands per rank (pJ)
system.mem_ctrls0.writeEnergy::1            683134560                       # Energy for write commands per rank (pJ)
system.mem_ctrls0.refreshEnergy::0         8552962080                       # Energy for refresh commands per rank (pJ)
system.mem_ctrls0.refreshEnergy::1         8552962080                       # Energy for refresh commands per rank (pJ)
system.mem_ctrls0.actBackEnergy::0        49874090850                       # Energy for active background per rank (pJ)
system.mem_ctrls0.actBackEnergy::1        49441081230                       # Energy for active background per rank (pJ)
system.mem_ctrls0.preBackEnergy::0        34820445000                       # Energy for precharge background per rank (pJ)
system.mem_ctrls0.preBackEnergy::1        35200278000                       # Energy for precharge background per rank (pJ)
system.mem_ctrls0.totalEnergy::0          96127608000                       # Total energy per rank (pJ)
system.mem_ctrls0.totalEnergy::1          96032599935                       # Total energy per rank (pJ)
system.mem_ctrls0.averagePower::0          734.082010                       # Core power per rank (mW)
system.mem_ctrls0.averagePower::1          733.356478                       # Core power per rank (mW)
system.mem_ctrls1.bytes_read::ruby.dir_cntrl1     20792000                       # Number of bytes read from this memory
system.mem_ctrls1.bytes_read::total          20792000                       # Number of bytes read from this memory
system.mem_ctrls1.bytes_written::ruby.dir_cntrl1     12923584                       # Number of bytes written to this memory
system.mem_ctrls1.bytes_written::total       12923584                       # Number of bytes written to this memory
system.mem_ctrls1.num_reads::ruby.dir_cntrl1       324875                       # Number of read requests responded to by this memory
system.mem_ctrls1.num_reads::total             324875                       # Number of read requests responded to by this memory
system.mem_ctrls1.num_writes::ruby.dir_cntrl1       201931                       # Number of write requests responded to by this memory
system.mem_ctrls1.num_writes::total            201931                       # Number of write requests responded to by this memory
system.mem_ctrls1.bw_read::ruby.dir_cntrl1    158774977                       # Total read bandwidth from this memory (bytes/s)
system.mem_ctrls1.bw_read::total            158774977                       # Total read bandwidth from this memory (bytes/s)
system.mem_ctrls1.bw_write::ruby.dir_cntrl1     98689003                       # Write bandwidth from this memory (bytes/s)
system.mem_ctrls1.bw_write::total            98689003                       # Write bandwidth from this memory (bytes/s)
system.mem_ctrls1.bw_total::ruby.dir_cntrl1    257463980                       # Total bandwidth to/from this memory (bytes/s)
system.mem_ctrls1.bw_total::total           257463980                       # Total bandwidth to/from this memory (bytes/s)
system.mem_ctrls1.readReqs                     324875                       # Number of read requests accepted
system.mem_ctrls1.writeReqs                    201931                       # Number of write requests accepted
system.mem_ctrls1.readBursts                   324875                       # Number of DRAM read bursts, including those serviced by the write queue
system.mem_ctrls1.writeBursts                  201931                       # Number of DRAM write bursts, including those merged in the write queue
system.mem_ctrls1.bytesReadDRAM              20790656                       # Total number of bytes read from DRAM
system.mem_ctrls1.bytesReadWrQ                   1344                       # Total number of bytes read from write queue
system.mem_ctrls1.bytesWritten               12923456                       # Total number of bytes written to DRAM
system.mem_ctrls1.bytesReadSys               20792000                       # Total read bytes from the system interface side
system.mem_ctrls1.bytesWrittenSys            12923584                       # Total written bytes from the system interface side
system.mem_ctrls1.servicedByWrQ                    21                       # Number of DRAM read bursts serviced by the write queue
system.mem_ctrls1.mergedWrBursts                    0                       # Number of DRAM write bursts merged with an existing one
system.mem_ctrls1.neitherReadNorWriteReqs            0                       # Number of requests that are neither read nor write
system.mem_ctrls1.perBankRdBursts::0            20059                       # Per bank write bursts
system.mem_ctrls1.perBankRdBursts::1            20697                       # Per bank write bursts
system.mem_ctrls1.perBankRdBursts::2            20233                       # Per bank write bursts
system.mem_ctrls1.perBankRdBursts::3            20674                       # Per bank write bursts
system.mem_ctrls1.perBankRdBursts::4            20367                       # Per bank write bursts
system.mem_ctrls1.perBankRdBursts::5            20527                       # Per bank write bursts
system.mem_ctrls1.perBankRdBursts::6            20415                       # Per bank write bursts
system.mem_ctrls1.perBankRdBursts::7            20501                       # Per bank write bursts
system.mem_ctrls1.perBankRdBursts::8            20184                       # Per bank write bursts
system.mem_ctrls1.perBankRdBursts::9            20382                       # Per bank write bursts
system.mem_ctrls1.perBankRdBursts::10           20145                       # Per bank write bursts
system.mem_ctrls1.perBankRdBursts::11           20570                       # Per bank write bursts
system.mem_ctrls1.perBankRdBursts::12           20013                       # Per bank write bursts
system.mem_ctrls1.perBankRdBursts::13           19883                       # Per bank write bursts
system.mem_ctrls1.perBankRdBursts::14           20071                       # Per bank write bursts
system.mem_ctrls1.perBankRdBursts::15           20133                       # Per bank write bursts
system.mem_ctrls1.perBankWrBursts::0            12673                       # Per bank write bursts
system.mem_ctrls1.perBankWrBursts::1            12653                       # Per bank write bursts
system.mem_ctrls1.perBankWrBursts::2            12552                       # Per bank write bursts
system.mem_ctrls1.perBankWrBursts::3            12765                       # Per bank write bursts
system.mem_ctrls1.perBankWrBursts::4            12602                       # Per bank write bursts
system.mem_ctrls1.perBankWrBursts::5            12720                       # Per bank write bursts
system.mem_ctrls1.perBankWrBursts::6            12630                       # Per bank write bursts
system.mem_ctrls1.perBankWrBursts::7            12827                       # Per bank write bursts
system.mem_ctrls1.perBankWrBursts::8            12538                       # Per bank write bursts
system.mem_ctrls1.perBankWrBursts::9            12757                       # Per bank write bursts
system.mem_ctrls1.perBankWrBursts::10           12553                       # Per bank write bursts
system.mem_ctrls1.perBankWrBursts::11           12487                       # Per bank write bursts
system.mem_ctrls1.perBankWrBursts::12           12461                       # Per bank write bursts
system.mem_ctrls1.perBankWrBursts::13           12462                       # Per bank write bursts
system.mem_ctrls1.perBankWrBursts::14           12703                       # Per bank write bursts
system.mem_ctrls1.perBankWrBursts::15           12546                       # Per bank write bursts
system.mem_ctrls1.numRdRetry                      523                       # Number of times read queue was full causing retry
system.mem_ctrls1.numWrRetry                     2138                       # Number of times write queue was full causing retry
system.mem_ctrls1.totGap                 130951799000                       # Total gap between requests
system.mem_ctrls1.readPktSize::0                    0                       # Read request sizes (log2)
system.mem_ctrls1.readPktSize::1                    0                       # Read request sizes (log2)
system.mem_ctrls1.readPktSize::2                    0                       # Read request sizes (log2)
system.mem_ctrls1.readPktSize::3                    0                       # Read request sizes (log2)
system.mem_ctrls1.readPktSize::4                    0                       # Read request sizes (log2)
system.mem_ctrls1.readPktSize::5                    0                       # Read request sizes (log2)
system.mem_ctrls1.readPktSize::6               324875                       # Read request sizes (log2)
system.mem_ctrls1.writePktSize::0                   0                       # Write request sizes (log2)
system.mem_ctrls1.writePktSize::1                   0                       # Write request sizes (log2)
system.mem_ctrls1.writePktSize::2                   0                       # Write request sizes (log2)
system.mem_ctrls1.writePktSize::3                   0                       # Write request sizes (log2)
system.mem_ctrls1.writePktSize::4                   0                       # Write request sizes (log2)
system.mem_ctrls1.writePktSize::5                   0                       # Write request sizes (log2)
system.mem_ctrls1.writePktSize::6              201931                       # Write request sizes (log2)
system.mem_ctrls1.rdQLenPdf::0                 173388                       # What read queue length does an incoming req see
system.mem_ctrls1.rdQLenPdf::1                   6285                       # What read queue length does an incoming req see
system.mem_ctrls1.rdQLenPdf::2                   7396                       # What read queue length does an incoming req see
system.mem_ctrls1.rdQLenPdf::3                   8127                       # What read queue length does an incoming req see
system.mem_ctrls1.rdQLenPdf::4                   8806                       # What read queue length does an incoming req see
system.mem_ctrls1.rdQLenPdf::5                   9429                       # What read queue length does an incoming req see
system.mem_ctrls1.rdQLenPdf::6                   9779                       # What read queue length does an incoming req see
system.mem_ctrls1.rdQLenPdf::7                  10060                       # What read queue length does an incoming req see
system.mem_ctrls1.rdQLenPdf::8                  10182                       # What read queue length does an incoming req see
system.mem_ctrls1.rdQLenPdf::9                  10101                       # What read queue length does an incoming req see
system.mem_ctrls1.rdQLenPdf::10                  9282                       # What read queue length does an incoming req see
system.mem_ctrls1.rdQLenPdf::11                  8508                       # What read queue length does an incoming req see
system.mem_ctrls1.rdQLenPdf::12                  7893                       # What read queue length does an incoming req see
system.mem_ctrls1.rdQLenPdf::13                  6715                       # What read queue length does an incoming req see
system.mem_ctrls1.rdQLenPdf::14                  5804                       # What read queue length does an incoming req see
system.mem_ctrls1.rdQLenPdf::15                  5106                       # What read queue length does an incoming req see
system.mem_ctrls1.rdQLenPdf::16                  4433                       # What read queue length does an incoming req see
system.mem_ctrls1.rdQLenPdf::17                  3860                       # What read queue length does an incoming req see
system.mem_ctrls1.rdQLenPdf::18                  3359                       # What read queue length does an incoming req see
system.mem_ctrls1.rdQLenPdf::19                  2873                       # What read queue length does an incoming req see
system.mem_ctrls1.rdQLenPdf::20                  2441                       # What read queue length does an incoming req see
system.mem_ctrls1.rdQLenPdf::21                  2034                       # What read queue length does an incoming req see
system.mem_ctrls1.rdQLenPdf::22                  1732                       # What read queue length does an incoming req see
system.mem_ctrls1.rdQLenPdf::23                  1512                       # What read queue length does an incoming req see
system.mem_ctrls1.rdQLenPdf::24                  1206                       # What read queue length does an incoming req see
system.mem_ctrls1.rdQLenPdf::25                   995                       # What read queue length does an incoming req see
system.mem_ctrls1.rdQLenPdf::26                   802                       # What read queue length does an incoming req see
system.mem_ctrls1.rdQLenPdf::27                   687                       # What read queue length does an incoming req see
system.mem_ctrls1.rdQLenPdf::28                   587                       # What read queue length does an incoming req see
system.mem_ctrls1.rdQLenPdf::29                   416                       # What read queue length does an incoming req see
system.mem_ctrls1.rdQLenPdf::30                   295                       # What read queue length does an incoming req see
system.mem_ctrls1.rdQLenPdf::31                   761                       # What read queue length does an incoming req see
system.mem_ctrls1.wrQLenPdf::0                  36288                       # What write queue length does an incoming req see
system.mem_ctrls1.wrQLenPdf::1                  37665                       # What write queue length does an incoming req see
system.mem_ctrls1.wrQLenPdf::2                  38047                       # What write queue length does an incoming req see
system.mem_ctrls1.wrQLenPdf::3                  38214                       # What write queue length does an incoming req see
system.mem_ctrls1.wrQLenPdf::4                  38428                       # What write queue length does an incoming req see
system.mem_ctrls1.wrQLenPdf::5                   4648                       # What write queue length does an incoming req see
system.mem_ctrls1.wrQLenPdf::6                   4258                       # What write queue length does an incoming req see
system.mem_ctrls1.wrQLenPdf::7                   4383                       # What write queue length does an incoming req see
system.mem_ctrls1.bytesPerActivate::samples       123438                       # Bytes accessed per row activation
system.mem_ctrls1.bytesPerActivate::mean   273.119655                       # Bytes accessed per row activation
system.mem_ctrls1.bytesPerActivate::gmean   209.115674                       # Bytes accessed per row activation
system.mem_ctrls1.bytesPerActivate::stdev   209.554054                       # Bytes accessed per row activation
system.mem_ctrls1.bytesPerActivate::0-127        24994     20.25%     20.25% # Bytes accessed per row activation
system.mem_ctrls1.bytesPerActivate::128-255        28377     22.99%     43.24% # Bytes accessed per row activation
system.mem_ctrls1.bytesPerActivate::256-383        52072     42.18%     85.42% # Bytes accessed per row activation
system.mem_ctrls1.bytesPerActivate::384-511         5465      4.43%     89.85% # Bytes accessed per row activation
system.mem_ctrls1.bytesPerActivate::512-639         3856      3.12%     92.97% # Bytes accessed per row activation
system.mem_ctrls1.bytesPerActivate::640-767         2103      1.70%     94.68% # Bytes accessed per row activation
system.mem_ctrls1.bytesPerActivate::768-895         1439      1.17%     95.84% # Bytes accessed per row activation
system.mem_ctrls1.bytesPerActivate::896-1023          989      0.80%     96.64% # Bytes accessed per row activation
system.mem_ctrls1.bytesPerActivate::1024-1151         4143      3.36%    100.00% # Bytes accessed per row activation
system.mem_ctrls1.bytesPerActivate::total       123438                       # Bytes accessed per row activation
system.mem_ctrls1.rdPerTurnAround::samples        36616                       # Reads before turning the bus around for writes
system.mem_ctrls1.rdPerTurnAround::mean      8.871040                       # Reads before turning the bus around for writes
system.mem_ctrls1.rdPerTurnAround::stdev    21.544392                       # Reads before turning the bus around for writes
system.mem_ctrls1.rdPerTurnAround::0-127        36534     99.78%     99.78% # Reads before turning the bus around for writes
system.mem_ctrls1.rdPerTurnAround::128-255           78      0.21%     99.99% # Reads before turning the bus around for writes
system.mem_ctrls1.rdPerTurnAround::256-383            2      0.01%     99.99% # Reads before turning the bus around for writes
system.mem_ctrls1.rdPerTurnAround::1152-1279            1      0.00%    100.00% # Reads before turning the bus around for writes
system.mem_ctrls1.rdPerTurnAround::2816-2943            1      0.00%    100.00% # Reads before turning the bus around for writes
system.mem_ctrls1.rdPerTurnAround::total        36616                       # Reads before turning the bus around for writes
system.mem_ctrls1.wrPerTurnAround::samples        36616                       # Writes before turning the bus around for reads
system.mem_ctrls1.wrPerTurnAround::mean      5.514775                       # Writes before turning the bus around for reads
system.mem_ctrls1.wrPerTurnAround::gmean     5.348382                       # Writes before turning the bus around for reads
system.mem_ctrls1.wrPerTurnAround::stdev     1.790991                       # Writes before turning the bus around for reads
system.mem_ctrls1.wrPerTurnAround::4-7          33774     92.24%     92.24% # Writes before turning the bus around for reads
system.mem_ctrls1.wrPerTurnAround::8-11          1841      5.03%     97.27% # Writes before turning the bus around for reads
system.mem_ctrls1.wrPerTurnAround::12-15          579      1.58%     98.85% # Writes before turning the bus around for reads
system.mem_ctrls1.wrPerTurnAround::16-19          422      1.15%    100.00% # Writes before turning the bus around for reads
system.mem_ctrls1.wrPerTurnAround::total        36616                       # Writes before turning the bus around for reads
system.mem_ctrls1.totQLat                 15280904281                       # Total ticks spent queuing
system.mem_ctrls1.totMemAccLat            21371916781                       # Total ticks spent from burst creation until serviced by the DRAM
system.mem_ctrls1.totBusLat                1624270000                       # Total ticks spent in databus transfers
system.mem_ctrls1.avgQLat                    47039.30                       # Average queueing delay per DRAM burst
system.mem_ctrls1.avgBusLat                   5000.00                       # Average bus latency per DRAM burst
system.mem_ctrls1.avgMemAccLat               65789.30                       # Average memory access latency per DRAM burst
system.mem_ctrls1.avgRdBW                      158.76                       # Average DRAM read bandwidth in MiByte/s
system.mem_ctrls1.avgWrBW                       98.69                       # Average achieved write bandwidth in MiByte/s
system.mem_ctrls1.avgRdBWSys                   158.77                       # Average system read bandwidth in MiByte/s
system.mem_ctrls1.avgWrBWSys                    98.69                       # Average system write bandwidth in MiByte/s
system.mem_ctrls1.peakBW                     12800.00                       # Theoretical peak bandwidth in MiByte/s
system.mem_ctrls1.busUtil                        2.01                       # Data bus utilization in percentage
system.mem_ctrls1.busUtilRead                    1.24                       # Data bus utilization in percentage for reads
system.mem_ctrls1.busUtilWrite                   0.77                       # Data bus utilization in percentage for writes
system.mem_ctrls1.avgRdQLen                      1.13                       # Average read queue length when enqueuing
system.mem_ctrls1.avgWrQLen                      2.98                       # Average write queue length when enqueuing
system.mem_ctrls1.readRowHits                  256747                       # Number of row buffer hits during reads
system.mem_ctrls1.writeRowHits                 146592                       # Number of row buffer hits during writes
system.mem_ctrls1.readRowHitRate                79.03                       # Row buffer hit rate for reads
system.mem_ctrls1.writeRowHitRate               72.60                       # Row buffer hit rate for writes
system.mem_ctrls1.avgGap                    248576.89                       # Average gap between requests
system.mem_ctrls1.pageHitRate                   76.57                       # Row buffer hit rate, read and write combined
system.mem_ctrls1.memoryStateTime::IDLE   28548848000                       # Time in different power states
system.mem_ctrls1.memoryStateTime::REF     4372680000                       # Time in different power states
system.mem_ctrls1.memoryStateTime::PRE_PDN            0                       # Time in different power states
system.mem_ctrls1.memoryStateTime::ACT    98027898250                       # Time in different power states
system.mem_ctrls1.memoryStateTime::ACT_PDN            0                       # Time in different power states
system.mem_ctrls1.actEnergy::0              474427800                       # Energy for activate commands per rank (pJ)
system.mem_ctrls1.actEnergy::1              458755920                       # Energy for activate commands per rank (pJ)
system.mem_ctrls1.preEnergy::0              258864375                       # Energy for precharge commands per rank (pJ)
system.mem_ctrls1.preEnergy::1              250313250                       # Energy for precharge commands per rank (pJ)
system.mem_ctrls1.readEnergy::0            1275034800                       # Energy for read commands per rank (pJ)
system.mem_ctrls1.readEnergy::1            1258725000                       # Energy for read commands per rank (pJ)
system.mem_ctrls1.writeEnergy::0            657214560                       # Energy for write commands per rank (pJ)
system.mem_ctrls1.writeEnergy::1            651285360                       # Energy for write commands per rank (pJ)
system.mem_ctrls1.refreshEnergy::0         8552962080                       # Energy for refresh commands per rank (pJ)
system.mem_ctrls1.refreshEnergy::1         8552962080                       # Energy for refresh commands per rank (pJ)
system.mem_ctrls1.actBackEnergy::0        49312462725                       # Energy for active background per rank (pJ)
system.mem_ctrls1.actBackEnergy::1        48372821145                       # Energy for active background per rank (pJ)
system.mem_ctrls1.preBackEnergy::0        35313101250                       # Energy for precharge background per rank (pJ)
system.mem_ctrls1.preBackEnergy::1        36137348250                       # Energy for precharge background per rank (pJ)
system.mem_ctrls1.totalEnergy::0          95844067590                       # Total energy per rank (pJ)
system.mem_ctrls1.totalEnergy::1          95682211005                       # Total energy per rank (pJ)
system.mem_ctrls1.averagePower::0          731.916744                       # Core power per rank (mW)
system.mem_ctrls1.averagePower::1          730.680720                       # Core power per rank (mW)
system.mem_ctrls2.bytes_read::ruby.dir_cntrl2     20790080                       # Number of bytes read from this memory
system.mem_ctrls2.bytes_read::total          20790080                       # Number of bytes read from this memory
system.mem_ctrls2.bytes_written::ruby.dir_cntrl2     12924096                       # Number of bytes written to this memory
system.mem_ctrls2.bytes_written::total       12924096                       # Number of bytes written to this memory
system.mem_ctrls2.num_reads::ruby.dir_cntrl2       324845                       # Number of read requests responded to by this memory
system.mem_ctrls2.num_reads::total             324845                       # Number of read requests responded to by this memory
system.mem_ctrls2.num_writes::ruby.dir_cntrl2       201939                       # Number of write requests responded to by this memory
system.mem_ctrls2.num_writes::total            201939                       # Number of write requests responded to by this memory
system.mem_ctrls2.bw_read::ruby.dir_cntrl2    158760315                       # Total read bandwidth from this memory (bytes/s)
system.mem_ctrls2.bw_read::total            158760315                       # Total read bandwidth from this memory (bytes/s)
system.mem_ctrls2.bw_write::ruby.dir_cntrl2     98692913                       # Write bandwidth from this memory (bytes/s)
system.mem_ctrls2.bw_write::total            98692913                       # Write bandwidth from this memory (bytes/s)
system.mem_ctrls2.bw_total::ruby.dir_cntrl2    257453228                       # Total bandwidth to/from this memory (bytes/s)
system.mem_ctrls2.bw_total::total           257453228                       # Total bandwidth to/from this memory (bytes/s)
system.mem_ctrls2.readReqs                     324845                       # Number of read requests accepted
system.mem_ctrls2.writeReqs                    201939                       # Number of write requests accepted
system.mem_ctrls2.readBursts                   324845                       # Number of DRAM read bursts, including those serviced by the write queue
system.mem_ctrls2.writeBursts                  201939                       # Number of DRAM write bursts, including those merged in the write queue
system.mem_ctrls2.bytesReadDRAM              20789056                       # Total number of bytes read from DRAM
system.mem_ctrls2.bytesReadWrQ                   1024                       # Total number of bytes read from write queue
system.mem_ctrls2.bytesWritten               12923840                       # Total number of bytes written to DRAM
system.mem_ctrls2.bytesReadSys               20790080                       # Total read bytes from the system interface side
system.mem_ctrls2.bytesWrittenSys            12924096                       # Total written bytes from the system interface side
system.mem_ctrls2.servicedByWrQ                    16                       # Number of DRAM read bursts serviced by the write queue
system.mem_ctrls2.mergedWrBursts                    0                       # Number of DRAM write bursts merged with an existing one
system.mem_ctrls2.neitherReadNorWriteReqs            0                       # Number of requests that are neither read nor write
system.mem_ctrls2.perBankRdBursts::0            20055                       # Per bank write bursts
system.mem_ctrls2.perBankRdBursts::1            20679                       # Per bank write bursts
system.mem_ctrls2.perBankRdBursts::2            20244                       # Per bank write bursts
system.mem_ctrls2.perBankRdBursts::3            20719                       # Per bank write bursts
system.mem_ctrls2.perBankRdBursts::4            20370                       # Per bank write bursts
system.mem_ctrls2.perBankRdBursts::5            20510                       # Per bank write bursts
system.mem_ctrls2.perBankRdBursts::6            20389                       # Per bank write bursts
system.mem_ctrls2.perBankRdBursts::7            20475                       # Per bank write bursts
system.mem_ctrls2.perBankRdBursts::8            20154                       # Per bank write bursts
system.mem_ctrls2.perBankRdBursts::9            20392                       # Per bank write bursts
system.mem_ctrls2.perBankRdBursts::10           20154                       # Per bank write bursts
system.mem_ctrls2.perBankRdBursts::11           20587                       # Per bank write bursts
system.mem_ctrls2.perBankRdBursts::12           20029                       # Per bank write bursts
system.mem_ctrls2.perBankRdBursts::13           19843                       # Per bank write bursts
system.mem_ctrls2.perBankRdBursts::14           20061                       # Per bank write bursts
system.mem_ctrls2.perBankRdBursts::15           20168                       # Per bank write bursts
system.mem_ctrls2.perBankWrBursts::0            12667                       # Per bank write bursts
system.mem_ctrls2.perBankWrBursts::1            12652                       # Per bank write bursts
system.mem_ctrls2.perBankWrBursts::2            12548                       # Per bank write bursts
system.mem_ctrls2.perBankWrBursts::3            12772                       # Per bank write bursts
system.mem_ctrls2.perBankWrBursts::4            12602                       # Per bank write bursts
system.mem_ctrls2.perBankWrBursts::5            12704                       # Per bank write bursts
system.mem_ctrls2.perBankWrBursts::6            12638                       # Per bank write bursts
system.mem_ctrls2.perBankWrBursts::7            12826                       # Per bank write bursts
system.mem_ctrls2.perBankWrBursts::8            12522                       # Per bank write bursts
system.mem_ctrls2.perBankWrBursts::9            12763                       # Per bank write bursts
system.mem_ctrls2.perBankWrBursts::10           12550                       # Per bank write bursts
system.mem_ctrls2.perBankWrBursts::11           12501                       # Per bank write bursts
system.mem_ctrls2.perBankWrBursts::12           12468                       # Per bank write bursts
system.mem_ctrls2.perBankWrBursts::13           12456                       # Per bank write bursts
system.mem_ctrls2.perBankWrBursts::14           12707                       # Per bank write bursts
system.mem_ctrls2.perBankWrBursts::15           12559                       # Per bank write bursts
system.mem_ctrls2.numRdRetry                      569                       # Number of times read queue was full causing retry
system.mem_ctrls2.numWrRetry                     1919                       # Number of times write queue was full causing retry
system.mem_ctrls2.totGap                 130952534000                       # Total gap between requests
system.mem_ctrls2.readPktSize::0                    0                       # Read request sizes (log2)
system.mem_ctrls2.readPktSize::1                    0                       # Read request sizes (log2)
system.mem_ctrls2.readPktSize::2                    0                       # Read request sizes (log2)
system.mem_ctrls2.readPktSize::3                    0                       # Read request sizes (log2)
system.mem_ctrls2.readPktSize::4                    0                       # Read request sizes (log2)
system.mem_ctrls2.readPktSize::5                    0                       # Read request sizes (log2)
system.mem_ctrls2.readPktSize::6               324845                       # Read request sizes (log2)
system.mem_ctrls2.writePktSize::0                   0                       # Write request sizes (log2)
system.mem_ctrls2.writePktSize::1                   0                       # Write request sizes (log2)
system.mem_ctrls2.writePktSize::2                   0                       # Write request sizes (log2)
system.mem_ctrls2.writePktSize::3                   0                       # Write request sizes (log2)
system.mem_ctrls2.writePktSize::4                   0                       # Write request sizes (log2)
system.mem_ctrls2.writePktSize::5                   0                       # Write request sizes (log2)
system.mem_ctrls2.writePktSize::6              201939                       # Write request sizes (log2)
system.mem_ctrls2.rdQLenPdf::0                 173489                       # What read queue length does an incoming req see
system.mem_ctrls2.rdQLenPdf::1                   6237                       # What read queue length does an incoming req see
system.mem_ctrls2.rdQLenPdf::2                   7258                       # What read queue length does an incoming req see
system.mem_ctrls2.rdQLenPdf::3                   7917                       # What read queue length does an incoming req see
system.mem_ctrls2.rdQLenPdf::4                   8794                       # What read queue length does an incoming req see
system.mem_ctrls2.rdQLenPdf::5                   9717                       # What read queue length does an incoming req see
system.mem_ctrls2.rdQLenPdf::6                  10026                       # What read queue length does an incoming req see
system.mem_ctrls2.rdQLenPdf::7                  10463                       # What read queue length does an incoming req see
system.mem_ctrls2.rdQLenPdf::8                  10585                       # What read queue length does an incoming req see
system.mem_ctrls2.rdQLenPdf::9                  10104                       # What read queue length does an incoming req see
system.mem_ctrls2.rdQLenPdf::10                  9293                       # What read queue length does an incoming req see
system.mem_ctrls2.rdQLenPdf::11                  8495                       # What read queue length does an incoming req see
system.mem_ctrls2.rdQLenPdf::12                  7615                       # What read queue length does an incoming req see
system.mem_ctrls2.rdQLenPdf::13                  6771                       # What read queue length does an incoming req see
system.mem_ctrls2.rdQLenPdf::14                  5801                       # What read queue length does an incoming req see
system.mem_ctrls2.rdQLenPdf::15                  5033                       # What read queue length does an incoming req see
system.mem_ctrls2.rdQLenPdf::16                  4442                       # What read queue length does an incoming req see
system.mem_ctrls2.rdQLenPdf::17                  3740                       # What read queue length does an incoming req see
system.mem_ctrls2.rdQLenPdf::18                  3129                       # What read queue length does an incoming req see
system.mem_ctrls2.rdQLenPdf::19                  2696                       # What read queue length does an incoming req see
system.mem_ctrls2.rdQLenPdf::20                  2357                       # What read queue length does an incoming req see
system.mem_ctrls2.rdQLenPdf::21                  2054                       # What read queue length does an incoming req see
system.mem_ctrls2.rdQLenPdf::22                  1734                       # What read queue length does an incoming req see
system.mem_ctrls2.rdQLenPdf::23                  1478                       # What read queue length does an incoming req see
system.mem_ctrls2.rdQLenPdf::24                  1153                       # What read queue length does an incoming req see
system.mem_ctrls2.rdQLenPdf::25                  1007                       # What read queue length does an incoming req see
system.mem_ctrls2.rdQLenPdf::26                   805                       # What read queue length does an incoming req see
system.mem_ctrls2.rdQLenPdf::27                   620                       # What read queue length does an incoming req see
system.mem_ctrls2.rdQLenPdf::28                   503                       # What read queue length does an incoming req see
system.mem_ctrls2.rdQLenPdf::29                   400                       # What read queue length does an incoming req see
system.mem_ctrls2.rdQLenPdf::30                   317                       # What read queue length does an incoming req see
system.mem_ctrls2.rdQLenPdf::31                   796                       # What read queue length does an incoming req see
system.mem_ctrls2.wrQLenPdf::0                  36307                       # What write queue length does an incoming req see
system.mem_ctrls2.wrQLenPdf::1                  37643                       # What write queue length does an incoming req see
system.mem_ctrls2.wrQLenPdf::2                  38050                       # What write queue length does an incoming req see
system.mem_ctrls2.wrQLenPdf::3                  38308                       # What write queue length does an incoming req see
system.mem_ctrls2.wrQLenPdf::4                  38474                       # What write queue length does an incoming req see
system.mem_ctrls2.wrQLenPdf::5                   4665                       # What write queue length does an incoming req see
system.mem_ctrls2.wrQLenPdf::6                   4373                       # What write queue length does an incoming req see
system.mem_ctrls2.wrQLenPdf::7                   4119                       # What write queue length does an incoming req see
system.mem_ctrls2.bytesPerActivate::samples       123360                       # Bytes accessed per row activation
system.mem_ctrls2.bytesPerActivate::mean   273.283009                       # Bytes accessed per row activation
system.mem_ctrls2.bytesPerActivate::gmean   209.251892                       # Bytes accessed per row activation
system.mem_ctrls2.bytesPerActivate::stdev   209.213470                       # Bytes accessed per row activation
system.mem_ctrls2.bytesPerActivate::0-127        25293     20.50%     20.50% # Bytes accessed per row activation
system.mem_ctrls2.bytesPerActivate::128-255        27352     22.17%     42.68% # Bytes accessed per row activation
system.mem_ctrls2.bytesPerActivate::256-383        52832     42.83%     85.50% # Bytes accessed per row activation
system.mem_ctrls2.bytesPerActivate::384-511         5427      4.40%     89.90% # Bytes accessed per row activation
system.mem_ctrls2.bytesPerActivate::512-639         3810      3.09%     92.99% # Bytes accessed per row activation
system.mem_ctrls2.bytesPerActivate::640-767         2086      1.69%     94.68% # Bytes accessed per row activation
system.mem_ctrls2.bytesPerActivate::768-895         1447      1.17%     95.86% # Bytes accessed per row activation
system.mem_ctrls2.bytesPerActivate::896-1023          964      0.78%     96.64% # Bytes accessed per row activation
system.mem_ctrls2.bytesPerActivate::1024-1151         4149      3.36%    100.00% # Bytes accessed per row activation
system.mem_ctrls2.bytesPerActivate::total       123360                       # Bytes accessed per row activation
system.mem_ctrls2.rdPerTurnAround::samples        36632                       # Reads before turning the bus around for writes
system.mem_ctrls2.rdPerTurnAround::mean      8.866428                       # Reads before turning the bus around for writes
system.mem_ctrls2.rdPerTurnAround::stdev    21.658438                       # Reads before turning the bus around for writes
system.mem_ctrls2.rdPerTurnAround::0-127        36549     99.77%     99.77% # Reads before turning the bus around for writes
system.mem_ctrls2.rdPerTurnAround::128-255           75      0.20%     99.98% # Reads before turning the bus around for writes
system.mem_ctrls2.rdPerTurnAround::256-383            6      0.02%     99.99% # Reads before turning the bus around for writes
system.mem_ctrls2.rdPerTurnAround::1152-1279            1      0.00%    100.00% # Reads before turning the bus around for writes
system.mem_ctrls2.rdPerTurnAround::2816-2943            1      0.00%    100.00% # Reads before turning the bus around for writes
system.mem_ctrls2.rdPerTurnAround::total        36632                       # Reads before turning the bus around for writes
system.mem_ctrls2.wrPerTurnAround::samples        36632                       # Writes before turning the bus around for reads
system.mem_ctrls2.wrPerTurnAround::mean      5.512530                       # Writes before turning the bus around for reads
system.mem_ctrls2.wrPerTurnAround::gmean     5.346868                       # Writes before turning the bus around for reads
system.mem_ctrls2.wrPerTurnAround::stdev     1.786281                       # Writes before turning the bus around for reads
system.mem_ctrls2.wrPerTurnAround::4-7          33814     92.31%     92.31% # Writes before turning the bus around for reads
system.mem_ctrls2.wrPerTurnAround::8-11          1807      4.93%     97.24% # Writes before turning the bus around for reads
system.mem_ctrls2.wrPerTurnAround::12-15          618      1.69%     98.93% # Writes before turning the bus around for reads
system.mem_ctrls2.wrPerTurnAround::16-19          393      1.07%    100.00% # Writes before turning the bus around for reads
system.mem_ctrls2.wrPerTurnAround::total        36632                       # Writes before turning the bus around for reads
system.mem_ctrls2.totQLat                 15179810371                       # Total ticks spent queuing
system.mem_ctrls2.totMemAccLat            21270354121                       # Total ticks spent from burst creation until serviced by the DRAM
system.mem_ctrls2.totBusLat                1624145000                       # Total ticks spent in databus transfers
system.mem_ctrls2.avgQLat                    46731.70                       # Average queueing delay per DRAM burst
system.mem_ctrls2.avgBusLat                   5000.00                       # Average bus latency per DRAM burst
system.mem_ctrls2.avgMemAccLat               65481.70                       # Average memory access latency per DRAM burst
system.mem_ctrls2.avgRdBW                      158.75                       # Average DRAM read bandwidth in MiByte/s
system.mem_ctrls2.avgWrBW                       98.69                       # Average achieved write bandwidth in MiByte/s
system.mem_ctrls2.avgRdBWSys                   158.76                       # Average system read bandwidth in MiByte/s
system.mem_ctrls2.avgWrBWSys                    98.69                       # Average system write bandwidth in MiByte/s
system.mem_ctrls2.peakBW                     12800.00                       # Theoretical peak bandwidth in MiByte/s
system.mem_ctrls2.busUtil                        2.01                       # Data bus utilization in percentage
system.mem_ctrls2.busUtilRead                    1.24                       # Data bus utilization in percentage for reads
system.mem_ctrls2.busUtilWrite                   0.77                       # Data bus utilization in percentage for writes
system.mem_ctrls2.avgRdQLen                      1.13                       # Average read queue length when enqueuing
system.mem_ctrls2.avgWrQLen                      2.95                       # Average write queue length when enqueuing
system.mem_ctrls2.readRowHits                  256526                       # Number of row buffer hits during reads
system.mem_ctrls2.writeRowHits                 146873                       # Number of row buffer hits during writes
system.mem_ctrls2.readRowHitRate                78.97                       # Row buffer hit rate for reads
system.mem_ctrls2.writeRowHitRate               72.73                       # Row buffer hit rate for writes
system.mem_ctrls2.avgGap                    248588.67                       # Average gap between requests
system.mem_ctrls2.pageHitRate                   76.58                       # Row buffer hit rate, read and write combined
system.mem_ctrls2.memoryStateTime::IDLE   28403646750                       # Time in different power states
system.mem_ctrls2.memoryStateTime::REF     4372680000                       # Time in different power states
system.mem_ctrls2.memoryStateTime::PRE_PDN            0                       # Time in different power states
system.mem_ctrls2.memoryStateTime::ACT    98173202250                       # Time in different power states
system.mem_ctrls2.memoryStateTime::ACT_PDN            0                       # Time in different power states
system.mem_ctrls2.actEnergy::0              474435360                       # Energy for activate commands per rank (pJ)
system.mem_ctrls2.actEnergy::1              458151120                       # Energy for activate commands per rank (pJ)
system.mem_ctrls2.preEnergy::0              258868500                       # Energy for precharge commands per rank (pJ)
system.mem_ctrls2.preEnergy::1              249983250                       # Energy for precharge commands per rank (pJ)
system.mem_ctrls2.readEnergy::0            1274777400                       # Energy for read commands per rank (pJ)
system.mem_ctrls2.readEnergy::1            1258787400                       # Energy for read commands per rank (pJ)
system.mem_ctrls2.writeEnergy::0            657130320                       # Energy for write commands per rank (pJ)
system.mem_ctrls2.writeEnergy::1            651408480                       # Energy for write commands per rank (pJ)
system.mem_ctrls2.refreshEnergy::0         8552962080                       # Energy for refresh commands per rank (pJ)
system.mem_ctrls2.refreshEnergy::1         8552962080                       # Energy for refresh commands per rank (pJ)
system.mem_ctrls2.actBackEnergy::0        49044328740                       # Energy for active background per rank (pJ)
system.mem_ctrls2.actBackEnergy::1        48116658870                       # Energy for active background per rank (pJ)
system.mem_ctrls2.preBackEnergy::0        35548306500                       # Energy for precharge background per rank (pJ)
system.mem_ctrls2.preBackEnergy::1        36362052000                       # Energy for precharge background per rank (pJ)
system.mem_ctrls2.totalEnergy::0          95810808900                       # Total energy per rank (pJ)
system.mem_ctrls2.totalEnergy::1          95650003200                       # Total energy per rank (pJ)
system.mem_ctrls2.averagePower::0          731.662763                       # Core power per rank (mW)
system.mem_ctrls2.averagePower::1          730.434764                       # Core power per rank (mW)
system.mem_ctrls3.bytes_read::ruby.dir_cntrl3     20769152                       # Number of bytes read from this memory
system.mem_ctrls3.bytes_read::total          20769152                       # Number of bytes read from this memory
system.mem_ctrls3.bytes_written::ruby.dir_cntrl3     12922624                       # Number of bytes written to this memory
system.mem_ctrls3.bytes_written::total       12922624                       # Number of bytes written to this memory
system.mem_ctrls3.num_reads::ruby.dir_cntrl3       324518                       # Number of read requests responded to by this memory
system.mem_ctrls3.num_reads::total             324518                       # Number of read requests responded to by this memory
system.mem_ctrls3.num_writes::ruby.dir_cntrl3       201916                       # Number of write requests responded to by this memory
system.mem_ctrls3.num_writes::total            201916                       # Number of write requests responded to by this memory
system.mem_ctrls3.bw_read::ruby.dir_cntrl3    158600502                       # Total read bandwidth from this memory (bytes/s)
system.mem_ctrls3.bw_read::total            158600502                       # Total read bandwidth from this memory (bytes/s)
system.mem_ctrls3.bw_write::ruby.dir_cntrl3     98681672                       # Write bandwidth from this memory (bytes/s)
system.mem_ctrls3.bw_write::total            98681672                       # Write bandwidth from this memory (bytes/s)
system.mem_ctrls3.bw_total::ruby.dir_cntrl3    257282174                       # Total bandwidth to/from this memory (bytes/s)
system.mem_ctrls3.bw_total::total           257282174                       # Total bandwidth to/from this memory (bytes/s)
system.mem_ctrls3.readReqs                     324518                       # Number of read requests accepted
system.mem_ctrls3.writeReqs                    201916                       # Number of write requests accepted
system.mem_ctrls3.readBursts                   324518                       # Number of DRAM read bursts, including those serviced by the write queue
system.mem_ctrls3.writeBursts                  201916                       # Number of DRAM write bursts, including those merged in the write queue
system.mem_ctrls3.bytesReadDRAM              20768320                       # Total number of bytes read from DRAM
system.mem_ctrls3.bytesReadWrQ                    832                       # Total number of bytes read from write queue
system.mem_ctrls3.bytesWritten               12922560                       # Total number of bytes written to DRAM
system.mem_ctrls3.bytesReadSys               20769152                       # Total read bytes from the system interface side
system.mem_ctrls3.bytesWrittenSys            12922624                       # Total written bytes from the system interface side
system.mem_ctrls3.servicedByWrQ                    13                       # Number of DRAM read bursts serviced by the write queue
system.mem_ctrls3.mergedWrBursts                    0                       # Number of DRAM write bursts merged with an existing one
system.mem_ctrls3.neitherReadNorWriteReqs            0                       # Number of requests that are neither read nor write
system.mem_ctrls3.perBankRdBursts::0            20051                       # Per bank write bursts
system.mem_ctrls3.perBankRdBursts::1            20650                       # Per bank write bursts
system.mem_ctrls3.perBankRdBursts::2            20160                       # Per bank write bursts
system.mem_ctrls3.perBankRdBursts::3            20693                       # Per bank write bursts
system.mem_ctrls3.perBankRdBursts::4            20302                       # Per bank write bursts
system.mem_ctrls3.perBankRdBursts::5            20503                       # Per bank write bursts
system.mem_ctrls3.perBankRdBursts::6            20398                       # Per bank write bursts
system.mem_ctrls3.perBankRdBursts::7            20456                       # Per bank write bursts
system.mem_ctrls3.perBankRdBursts::8            20146                       # Per bank write bursts
system.mem_ctrls3.perBankRdBursts::9            20381                       # Per bank write bursts
system.mem_ctrls3.perBankRdBursts::10           20192                       # Per bank write bursts
system.mem_ctrls3.perBankRdBursts::11           20539                       # Per bank write bursts
system.mem_ctrls3.perBankRdBursts::12           19972                       # Per bank write bursts
system.mem_ctrls3.perBankRdBursts::13           19837                       # Per bank write bursts
system.mem_ctrls3.perBankRdBursts::14           20086                       # Per bank write bursts
system.mem_ctrls3.perBankRdBursts::15           20139                       # Per bank write bursts
system.mem_ctrls3.perBankWrBursts::0            12673                       # Per bank write bursts
system.mem_ctrls3.perBankWrBursts::1            12642                       # Per bank write bursts
system.mem_ctrls3.perBankWrBursts::2            12556                       # Per bank write bursts
system.mem_ctrls3.perBankWrBursts::3            12763                       # Per bank write bursts
system.mem_ctrls3.perBankWrBursts::4            12601                       # Per bank write bursts
system.mem_ctrls3.perBankWrBursts::5            12706                       # Per bank write bursts
system.mem_ctrls3.perBankWrBursts::6            12634                       # Per bank write bursts
system.mem_ctrls3.perBankWrBursts::7            12819                       # Per bank write bursts
system.mem_ctrls3.perBankWrBursts::8            12519                       # Per bank write bursts
system.mem_ctrls3.perBankWrBursts::9            12766                       # Per bank write bursts
system.mem_ctrls3.perBankWrBursts::10           12550                       # Per bank write bursts
system.mem_ctrls3.perBankWrBursts::11           12506                       # Per bank write bursts
system.mem_ctrls3.perBankWrBursts::12           12464                       # Per bank write bursts
system.mem_ctrls3.perBankWrBursts::13           12461                       # Per bank write bursts
system.mem_ctrls3.perBankWrBursts::14           12714                       # Per bank write bursts
system.mem_ctrls3.perBankWrBursts::15           12541                       # Per bank write bursts
system.mem_ctrls3.numRdRetry                      267                       # Number of times read queue was full causing retry
system.mem_ctrls3.numWrRetry                     1823                       # Number of times write queue was full causing retry
system.mem_ctrls3.totGap                 130951485000                       # Total gap between requests
system.mem_ctrls3.readPktSize::0                    0                       # Read request sizes (log2)
system.mem_ctrls3.readPktSize::1                    0                       # Read request sizes (log2)
system.mem_ctrls3.readPktSize::2                    0                       # Read request sizes (log2)
system.mem_ctrls3.readPktSize::3                    0                       # Read request sizes (log2)
system.mem_ctrls3.readPktSize::4                    0                       # Read request sizes (log2)
system.mem_ctrls3.readPktSize::5                    0                       # Read request sizes (log2)
system.mem_ctrls3.readPktSize::6               324518                       # Read request sizes (log2)
system.mem_ctrls3.writePktSize::0                   0                       # Write request sizes (log2)
system.mem_ctrls3.writePktSize::1                   0                       # Write request sizes (log2)
system.mem_ctrls3.writePktSize::2                   0                       # Write request sizes (log2)
system.mem_ctrls3.writePktSize::3                   0                       # Write request sizes (log2)
system.mem_ctrls3.writePktSize::4                   0                       # Write request sizes (log2)
system.mem_ctrls3.writePktSize::5                   0                       # Write request sizes (log2)
system.mem_ctrls3.writePktSize::6              201916                       # Write request sizes (log2)
system.mem_ctrls3.rdQLenPdf::0                 173068                       # What read queue length does an incoming req see
system.mem_ctrls3.rdQLenPdf::1                   6196                       # What read queue length does an incoming req see
system.mem_ctrls3.rdQLenPdf::2                   7320                       # What read queue length does an incoming req see
system.mem_ctrls3.rdQLenPdf::3                   8180                       # What read queue length does an incoming req see
system.mem_ctrls3.rdQLenPdf::4                   9021                       # What read queue length does an incoming req see
system.mem_ctrls3.rdQLenPdf::5                   9658                       # What read queue length does an incoming req see
system.mem_ctrls3.rdQLenPdf::6                  10199                       # What read queue length does an incoming req see
system.mem_ctrls3.rdQLenPdf::7                  10537                       # What read queue length does an incoming req see
system.mem_ctrls3.rdQLenPdf::8                  10453                       # What read queue length does an incoming req see
system.mem_ctrls3.rdQLenPdf::9                  10070                       # What read queue length does an incoming req see
system.mem_ctrls3.rdQLenPdf::10                  9388                       # What read queue length does an incoming req see
system.mem_ctrls3.rdQLenPdf::11                  8596                       # What read queue length does an incoming req see
system.mem_ctrls3.rdQLenPdf::12                  7661                       # What read queue length does an incoming req see
system.mem_ctrls3.rdQLenPdf::13                  6944                       # What read queue length does an incoming req see
system.mem_ctrls3.rdQLenPdf::14                  5993                       # What read queue length does an incoming req see
system.mem_ctrls3.rdQLenPdf::15                  5198                       # What read queue length does an incoming req see
system.mem_ctrls3.rdQLenPdf::16                  4384                       # What read queue length does an incoming req see
system.mem_ctrls3.rdQLenPdf::17                  3718                       # What read queue length does an incoming req see
system.mem_ctrls3.rdQLenPdf::18                  3227                       # What read queue length does an incoming req see
system.mem_ctrls3.rdQLenPdf::19                  2791                       # What read queue length does an incoming req see
system.mem_ctrls3.rdQLenPdf::20                  2373                       # What read queue length does an incoming req see
system.mem_ctrls3.rdQLenPdf::21                  1971                       # What read queue length does an incoming req see
system.mem_ctrls3.rdQLenPdf::22                  1585                       # What read queue length does an incoming req see
[...]
system.ruby.L2Cache_Controller.ISS.L1_GETS::total            1                      
system.ruby.L2Cache_Controller.ISS.Mem_Data |       25310      5.03%      5.03% |       15476      3.07%      8.10% |       15507      3.08%     11.18% |       15459      3.07%     14.25% |       15432      3.06%     17.31% |       15410      3.06%     20.37% |       15415      3.06%     23.43% |       15412      3.06%     26.49% |       15444      3.07%     29.56% |       15459      3.07%     32.63% |       15487      3.07%     35.70% |       15409      3.06%     38.76% |       15422      3.06%     41.82% |       15428      3.06%     44.88% |       15434      3.06%     47.95% |       15401      3.06%     51.01% |       15413      3.06%     54.07% |       15407      3.06%     57.13% |       15434      3.06%     60.19% |       15413      3.06%     63.25% |       15436      3.06%     66.32% |       15449      3.07%     69.38% |       15447      3.07%     72.45% |       15422      3.06%     75.51% |       15435      3.06%     78.58% |       15435      3.06%     81.64% |       15411      3.06%     84.70% |       15398      3.06%     87.76% |       15437      3.06%     90.82% |       15399      3.06%     93.88% |       15398      3.06%     96.94% |       15426      3.06%    100.00%
system.ruby.L2Cache_Controller.ISS.Mem_Data::total       503665                      
system.ruby.L2Cache_Controller.IS.Mem_Data |         503      3.21%      3.21% |         453      2.89%      6.10% |         438      2.79%      8.89% |         450      2.87%     11.76% |         450      2.87%     14.63% |         430      2.74%     17.37% |         472      3.01%     20.38% |         491      3.13%     23.51% |         505      3.22%     26.73% |         445      2.84%     29.57% |         487      3.11%     32.67% |         498      3.18%     35.85% |         551      3.51%     39.36% |         523      3.34%     42.70% |         510      3.25%     45.95% |         492      3.14%     49.09% |         515      3.28%     52.37% |         532      3.39%     55.76% |         529      3.37%     59.14% |         483      3.08%     62.22% |         472      3.01%     65.23% |         523      3.34%     68.56% |         477      3.04%     71.60% |         451      2.88%     74.48% |         519      3.31%     77.79% |         577      3.68%     81.47% |         521      3.32%     84.79% |         479      3.05%     87.85% |         456      2.91%     90.75% |         511      3.26%     94.01% |         486      3.10%     97.11% |         453      2.89%    100.00%
system.ruby.L2Cache_Controller.IS.Mem_Data::total        15682                      
system.ruby.L2Cache_Controller.IM.Mem_Data |       24719      3.13%      3.13% |       24665      3.12%      6.25% |       24674      3.12%      9.38% |       24679      3.13%     12.50% |       24670      3.12%     15.63% |       24674      3.12%     18.75% |       24675      3.12%     21.88% |       24666      3.12%     25.00% |       24681      3.13%     28.13% |       24680      3.13%     31.25% |       24663      3.12%     34.37% |       24687      3.13%     37.50% |       24674      3.12%     40.63% |       24671      3.12%     43.75% |       24669      3.12%     46.87% |       24662      3.12%     50.00% |       24683      3.13%     53.12% |       24680      3.13%     56.25% |       24677      3.13%     59.37% |       24675      3.12%     62.50% |       24688      3.13%     65.62% |       24696      3.13%     68.75% |       24670      3.12%     71.88% |       24674      3.12%     75.00% |       24686      3.13%     78.13% |       24680      3.13%     81.25% |       24683      3.13%     84.38% |       24670      3.12%     87.50% |       24671      3.12%     90.63% |       24672      3.12%     93.75% |       24681      3.13%     96.88% |       24668      3.12%    100.00%
system.ruby.L2Cache_Controller.IM.Mem_Data::total       789663                      
system.ruby.L2Cache_Controller.SS_MB.Exclusive_Unblock |           2      4.17%      4.17% |           4      8.33%     12.50% |           5     10.42%     22.92% |           3      6.25%     29.17% |           0      0.00%     29.17% |           0      0.00%     29.17% |           0      0.00%     29.17% |           0      0.00%     29.17% |           1      2.08%     31.25% |           1      2.08%     33.33% |           0      0.00%     33.33% |           1      2.08%     35.42% |           6     12.50%     47.92% |           0      0.00%     47.92% |           2      4.17%     52.08% |           0      0.00%     52.08% |           0      0.00%     52.08% |           0      0.00%     52.08% |           7     14.58%     66.67% |           5     10.42%     77.08% |           1      2.08%     79.17% |           0      0.00%     79.17% |           0      0.00%     79.17% |           0      0.00%     79.17% |           1      2.08%     81.25% |           1      2.08%     83.33% |           1      2.08%     85.42% |           1      2.08%     87.50% |           5     10.42%     97.92% |           0      0.00%     97.92% |           1      2.08%    100.00% |           0      0.00%    100.00%
system.ruby.L2Cache_Controller.SS_MB.Exclusive_Unblock::total           48                      
system.ruby.L2Cache_Controller.MT_MB.L1_PUTX |           7    100.00%    100.00% |           0      0.00%    100.00% |           0      0.00%    100.00% |           0      0.00%    100.00% |           0      0.00%    100.00% |           0      0.00%    100.00% |           0      0.00%    100.00% |           0      0.00%    100.00% |           0      0.00%    100.00% |           0      0.00%    100.00% |           0      0.00%    100.00% |           0      0.00%    100.00% |           0      0.00%    100.00% |           0      0.00%    100.00% |           0      0.00%    100.00% |           0      0.00%    100.00% |           0      0.00%    100.00% |           0      0.00%    100.00% |           0      0.00%    100.00% |           0      0.00%    100.00% |           0      0.00%    100.00% |           0      0.00%    100.00% |           0      0.00%    100.00% |           0      0.00%    100.00% |           0      0.00%    100.00% |           0      0.00%    100.00% |           0      0.00%    100.00% |           0      0.00%    100.00% |           0      0.00%    100.00% |           0      0.00%    100.00% |           0      0.00%    100.00% |           0      0.00%    100.00%
system.ruby.L2Cache_Controller.MT_MB.L1_PUTX::total            7                      
system.ruby.L2Cache_Controller.MT_MB.Exclusive_Unblock |      172274      9.61%      9.61% |       54275      3.03%     12.63% |       49275      2.75%     15.38% |       52984      2.95%     18.33% |       53500      2.98%     21.32% |       49508      2.76%     24.08% |       45944      2.56%     26.64% |       45952      2.56%     29.20% |       51251      2.86%     32.06% |       49806      2.78%     34.83% |       54041      3.01%     37.85% |       51019      2.84%     40.69% |       48276      2.69%     43.38% |       46904      2.62%     46.00% |       47871      2.67%     48.67% |       46602      2.60%     51.27% |       50467      2.81%     54.08% |       48361      2.70%     56.78% |       49889      2.78%     59.56% |       54000      3.01%     62.57% |       54516      3.04%     65.61% |       63364      3.53%     69.14% |       57993      3.23%     72.37% |       53233      2.97%     75.34% |       53322      2.97%     78.32% |       51432      2.87%     81.18% |       52496      2.93%     84.11% |       52298      2.92%     87.03% |       55497      3.09%     90.12% |       55153      3.08%     93.20% |       63458      3.54%     96.73% |       58583      3.27%    100.00%
system.ruby.L2Cache_Controller.MT_MB.Exclusive_Unblock::total      1793544                      
system.ruby.L2Cache_Controller.MT_IIB.WB_Data |           0      0.00%      0.00% |           0      0.00%      0.00% |           1      7.14%      7.14% |           1      7.14%     14.29% |           1      7.14%     21.43% |           0      0.00%     21.43% |           1      7.14%     28.57% |           0      0.00%     28.57% |           1      7.14%     35.71% |           1      7.14%     42.86% |           1      7.14%     50.00% |           1      7.14%     57.14% |           1      7.14%     64.29% |           0      0.00%     64.29% |           1      7.14%     71.43% |           1      7.14%     78.57% |           1      7.14%     85.71% |           1      7.14%     92.86% |           1      7.14%    100.00% |           0      0.00%    100.00% |           0      0.00%    100.00% |           0      0.00%    100.00% |           0      0.00%    100.00% |           0      0.00%    100.00% |           0      0.00%    100.00% |           0      0.00%    100.00% |           0      0.00%    100.00% |           0      0.00%    100.00% |           0      0.00%    100.00% |           0      0.00%    100.00% |           0      0.00%    100.00% |           0      0.00%    100.00%
system.ruby.L2Cache_Controller.MT_IIB.WB_Data::total           14                      
system.ruby.L2Cache_Controller.MT_IIB.WB_Data_clean |          13    100.00%    100.00% |           0      0.00%    100.00% |           0      0.00%    100.00% |           0      0.00%    100.00% |           0      0.00%    100.00% |           0      0.00%    100.00% |           0      0.00%    100.00% |           0      0.00%    100.00% |           0      0.00%    100.00% |           0      0.00%    100.00% |           0      0.00%    100.00% |           0      0.00%    100.00% |           0      0.00%    100.00% |           0      0.00%    100.00% |           0      0.00%    100.00% |           0      0.00%    100.00% |           0      0.00%    100.00% |           0      0.00%    100.00% |           0      0.00%    100.00% |           0      0.00%    100.00% |           0      0.00%    100.00% |           0      0.00%    100.00% |           0      0.00%    100.00% |           0      0.00%    100.00% |           0      0.00%    100.00% |           0      0.00%    100.00% |           0      0.00%    100.00% |           0      0.00%    100.00% |           0      0.00%    100.00% |           0      0.00%    100.00% |           0      0.00%    100.00% |           0      0.00%    100.00%
system.ruby.L2Cache_Controller.MT_IIB.WB_Data_clean::total           13                      
system.ruby.L2Cache_Controller.MT_IIB.Unblock |           0      0.00%      0.00% |           0      0.00%      0.00% |           0      0.00%      0.00% |           0      0.00%      0.00% |           0      0.00%      0.00% |           0      0.00%      0.00% |           0      0.00%      0.00% |           1     50.00%     50.00% |           0      0.00%     50.00% |           0      0.00%     50.00% |           0      0.00%     50.00% |           0      0.00%     50.00% |           0      0.00%     50.00% |           1     50.00%    100.00% |           0      0.00%    100.00% |           0      0.00%    100.00% |           0      0.00%    100.00% |           0      0.00%    100.00% |           0      0.00%    100.00% |           0      0.00%    100.00% |           0      0.00%    100.00% |           0      0.00%    100.00% |           0      0.00%    100.00% |           0      0.00%    100.00% |           0      0.00%    100.00% |           0      0.00%    100.00% |           0      0.00%    100.00% |           0      0.00%    100.00% |           0      0.00%    100.00% |           0      0.00%    100.00% |           0      0.00%    100.00% |           0      0.00%    100.00%
system.ruby.L2Cache_Controller.MT_IIB.Unblock::total            2                      
system.ruby.L2Cache_Controller.MT_IB.WB_Data |           0      0.00%      0.00% |           0      0.00%      0.00% |           0      0.00%      0.00% |           0      0.00%      0.00% |           0      0.00%      0.00% |           0      0.00%      0.00% |           0      0.00%      0.00% |           1     50.00%     50.00% |           0      0.00%     50.00% |           0      0.00%     50.00% |           0      0.00%     50.00% |           0      0.00%     50.00% |           0      0.00%     50.00% |           1     50.00%    100.00% |           0      0.00%    100.00% |           0      0.00%    100.00% |           0      0.00%    100.00% |           0      0.00%    100.00% |           0      0.00%    100.00% |           0      0.00%    100.00% |           0      0.00%    100.00% |           0      0.00%    100.00% |           0      0.00%    100.00% |           0      0.00%    100.00% |           0      0.00%    100.00% |           0      0.00%    100.00% |           0      0.00%    100.00% |           0      0.00%    100.00% |           0      0.00%    100.00% |           0      0.00%    100.00% |           0      0.00%    100.00% |           0      0.00%    100.00%
system.ruby.L2Cache_Controller.MT_IB.WB_Data::total            2                      
system.ruby.L2Cache_Controller.MT_SB.Unblock |          13     48.15%     48.15% |           0      0.00%     48.15% |           1      3.70%     51.85% |           1      3.70%     55.56% |           1      3.70%     59.26% |           0      0.00%     59.26% |           1      3.70%     62.96% |           0      0.00%     62.96% |           1      3.70%     66.67% |           1      3.70%     70.37% |           1      3.70%     74.07% |           1      3.70%     77.78% |           1      3.70%     81.48% |           0      0.00%     81.48% |           1      3.70%     85.19% |           1      3.70%     88.89% |           1      3.70%     92.59% |           1      3.70%     96.30% |           1      3.70%    100.00% |           0      0.00%    100.00% |           0      0.00%    100.00% |           0      0.00%    100.00% |           0      0.00%    100.00% |           0      0.00%    100.00% |           0      0.00%    100.00% |           0      0.00%    100.00% |           0      0.00%    100.00% |           0      0.00%    100.00% |           0      0.00%    100.00% |           0      0.00%    100.00% |           0      0.00%    100.00% |           0      0.00%    100.00%
system.ruby.L2Cache_Controller.MT_SB.Unblock::total           27                      
system.ruby.SimicsNetworkPortInterface_Controller.MessageSend |       36951     12.37%     12.37% |      149329     50.00%     62.37% |       26950      9.02%     71.40% |       29575      9.90%     81.30% |       26755      8.96%     90.26% |       29098      9.74%    100.00% |           0      0.00%    100.00% |           0      0.00%    100.00% |           0      0.00%    100.00% |           0      0.00%    100.00% |           0      0.00%    100.00% |           0      0.00%    100.00% |           0      0.00%    100.00% |           0      0.00%    100.00% |           0      0.00%    100.00% |           0      0.00%    100.00% |           0      0.00%    100.00% |           0      0.00%    100.00% |           0      0.00%    100.00% |           0      0.00%    100.00% |           0      0.00%    100.00% |           0      0.00%    100.00% |           0      0.00%    100.00% |           0      0.00%    100.00% |           0      0.00%    100.00% |           0      0.00%    100.00% |           0      0.00%    100.00% |           0      0.00%    100.00% |           0      0.00%    100.00% |           0      0.00%    100.00% |           0      0.00%    100.00% |           0      0.00%    100.00%
system.ruby.SimicsNetworkPortInterface_Controller.MessageSend::total       298658                      
system.ruby.SimicsNetworkPortInterface_Controller.MessageRecv |       36951     12.37%     12.37% |      149329     50.00%     62.37% |       26950      9.02%     71.40% |       29575      9.90%     81.30% |       26755      8.96%     90.26% |       29098      9.74%    100.00% |           0      0.00%    100.00% |           0      0.00%    100.00% |           0      0.00%    100.00% |           0      0.00%    100.00% |           0      0.00%    100.00% |           0      0.00%    100.00% |           0      0.00%    100.00% |           0      0.00%    100.00% |           0      0.00%    100.00% |           0      0.00%    100.00% |           0      0.00%    100.00% |           0      0.00%    100.00% |           0      0.00%    100.00% |           0      0.00%    100.00% |           0      0.00%    100.00% |           0      0.00%    100.00% |           0      0.00%    100.00% |           0      0.00%    100.00% |           0      0.00%    100.00% |           0      0.00%    100.00% |           0      0.00%    100.00% |           0      0.00%    100.00% |           0      0.00%    100.00% |           0      0.00%    100.00% |           0      0.00%    100.00% |           0      0.00%    100.00%
system.ruby.SimicsNetworkPortInterface_Controller.MessageRecv::total       298658                      
system.ruby.SimicsNetworkPortInterface_Controller.A.MessageSend |       36951     12.37%     12.37% |      149329     50.00%     62.37% |       26950      9.02%     71.40% |       29575      9.90%     81.30% |       26755      8.96%     90.26% |       29098      9.74%    100.00% |           0      0.00%    100.00% |           0      0.00%    100.00% |           0      0.00%    100.00% |           0      0.00%    100.00% |           0      0.00%    100.00% |           0      0.00%    100.00% |           0      0.00%    100.00% |           0      0.00%    100.00% |           0      0.00%    100.00% |           0      0.00%    100.00% |           0      0.00%    100.00% |           0      0.00%    100.00% |           0      0.00%    100.00% |           0      0.00%    100.00% |           0      0.00%    100.00% |           0      0.00%    100.00% |           0      0.00%    100.00% |           0      0.00%    100.00% |           0      0.00%    100.00% |           0      0.00%    100.00% |           0      0.00%    100.00% |           0      0.00%    100.00% |           0      0.00%    100.00% |           0      0.00%    100.00% |           0      0.00%    100.00% |           0      0.00%    100.00%
system.ruby.SimicsNetworkPortInterface_Controller.A.MessageSend::total       298658                      
system.ruby.SimicsNetworkPortInterface_Controller.A.MessageRecv |       36951     12.37%     12.37% |      149329     50.00%     62.37% |       26950      9.02%     71.40% |       29575      9.90%     81.30% |       26755      8.96%     90.26% |       29098      9.74%    100.00% |           0      0.00%    100.00% |           0      0.00%    100.00% |           0      0.00%    100.00% |           0      0.00%    100.00% |           0      0.00%    100.00% |           0      0.00%    100.00% |           0      0.00%    100.00% |           0      0.00%    100.00% |           0      0.00%    100.00% |           0      0.00%    100.00% |           0      0.00%    100.00% |           0      0.00%    100.00% |           0      0.00%    100.00% |           0      0.00%    100.00% |           0      0.00%    100.00% |           0      0.00%    100.00% |           0      0.00%    100.00% |           0      0.00%    100.00% |           0      0.00%    100.00% |           0      0.00%    100.00% |           0      0.00%    100.00% |           0      0.00%    100.00% |           0      0.00%    100.00% |           0      0.00%    100.00% |           0      0.00%    100.00% |           0      0.00%    100.00%
system.ruby.SimicsNetworkPortInterface_Controller.A.MessageRecv::total       298658                      
system.switch_cpus.kern.inst.arm                    0                       # number of arm instructions executed
system.switch_cpus.kern.inst.quiesce                0                       # number of quiesce instructions executed

---------- End Simulation Statistics   ----------
