
---------- Begin Simulation Statistics ----------
sim_seconds                                  0.130717                       # Number of seconds simulated
sim_ticks                                130717443500                       # Number of ticks simulated
final_tick                               5306885522000                       # Number of ticks from beginning of simulation (restored from checkpoints and never reset)
sim_freq                                 1000000000000                       # Frequency of simulated ticks
host_inst_rate                                  33711                       # Simulator instruction rate (inst/s)
host_op_rate                                    58201                       # Simulator op (including micro ops) rate (op/s)
host_tick_rate                              103193979                       # Simulator tick rate (ticks/s)
host_mem_usage                                3748320                       # Number of bytes of host memory used
host_seconds                                  1266.72                       # Real time elapsed on the host
sim_insts                                    42702227                       # Number of instructions simulated
sim_ops                                      73724153                       # Number of ops (including micro ops) simulated
system.voltage_domain.voltage                       1                       # Voltage in Volts
system.clk_domain.clock                           500                       # Clock period in ticks
system.mem_ctrls0.bytes_read::ruby.dir_cntrl0     21512320                       # Number of bytes read from this memory
system.mem_ctrls0.bytes_read::total          21512320                       # Number of bytes read from this memory
system.mem_ctrls0.bytes_written::ruby.dir_cntrl0     13555968                       # Number of bytes written to this memory
system.mem_ctrls0.bytes_written::total       13555968                       # Number of bytes written to this memory
system.mem_ctrls0.num_reads::ruby.dir_cntrl0       336130                       # Number of read requests responded to by this memory
system.mem_ctrls0.num_reads::total             336130                       # Number of read requests responded to by this memory
system.mem_ctrls0.num_writes::ruby.dir_cntrl0       211812                       # Number of write requests responded to by this memory
system.mem_ctrls0.num_writes::total            211812                       # Number of write requests responded to by this memory
system.mem_ctrls0.bw_read::ruby.dir_cntrl0    164571150                       # Total read bandwidth from this memory (bytes/s)
system.mem_ctrls0.bw_read::total            164571150                       # Total read bandwidth from this memory (bytes/s)
system.mem_ctrls0.bw_write::ruby.dir_cntrl0    103704354                       # Write bandwidth from this memory (bytes/s)
system.mem_ctrls0.bw_write::total           103704354                       # Write bandwidth from this memory (bytes/s)
system.mem_ctrls0.bw_total::ruby.dir_cntrl0    268275504                       # Total bandwidth to/from this memory (bytes/s)
system.mem_ctrls0.bw_total::total           268275504                       # Total bandwidth to/from this memory (bytes/s)
system.mem_ctrls0.readReqs                     336130                       # Number of read requests accepted
system.mem_ctrls0.writeReqs                    211812                       # Number of write requests accepted
system.mem_ctrls0.readBursts                   336130                       # Number of DRAM read bursts, including those serviced by the write queue
system.mem_ctrls0.writeBursts                  211812                       # Number of DRAM write bursts, including those merged in the write queue
system.mem_ctrls0.bytesReadDRAM              21511552                       # Total number of bytes read from DRAM
system.mem_ctrls0.bytesReadWrQ                    768                       # Total number of bytes read from write queue
system.mem_ctrls0.bytesWritten               13555712                       # Total number of bytes written to DRAM
system.mem_ctrls0.bytesReadSys               21512320                       # Total read bytes from the system interface side
system.mem_ctrls0.bytesWrittenSys            13555968                       # Total written bytes from the system interface side
system.mem_ctrls0.servicedByWrQ                    12                       # Number of DRAM read bursts serviced by the write queue
system.mem_ctrls0.mergedWrBursts                    0                       # Number of DRAM write bursts merged with an existing one
system.mem_ctrls0.neitherReadNorWriteReqs            0                       # Number of requests that are neither read nor write
system.mem_ctrls0.perBankRdBursts::0            20729                       # Per bank write bursts
system.mem_ctrls0.perBankRdBursts::1            21351                       # Per bank write bursts
system.mem_ctrls0.perBankRdBursts::2            20931                       # Per bank write bursts
system.mem_ctrls0.perBankRdBursts::3            21422                       # Per bank write bursts
system.mem_ctrls0.perBankRdBursts::4            21029                       # Per bank write bursts
system.mem_ctrls0.perBankRdBursts::5            21267                       # Per bank write bursts
system.mem_ctrls0.perBankRdBursts::6            21168                       # Per bank write bursts
system.mem_ctrls0.perBankRdBursts::7            21144                       # Per bank write bursts
system.mem_ctrls0.perBankRdBursts::8            20892                       # Per bank write bursts
system.mem_ctrls0.perBankRdBursts::9            21085                       # Per bank write bursts
system.mem_ctrls0.perBankRdBursts::10           20846                       # Per bank write bursts
system.mem_ctrls0.perBankRdBursts::11           21239                       # Per bank write bursts
system.mem_ctrls0.perBankRdBursts::12           20722                       # Per bank write bursts
system.mem_ctrls0.perBankRdBursts::13           20621                       # Per bank write bursts
system.mem_ctrls0.perBankRdBursts::14           20858                       # Per bank write bursts
system.mem_ctrls0.perBankRdBursts::15           20814                       # Per bank write bursts
system.mem_ctrls0.perBankWrBursts::0            13288                       # Per bank write bursts
system.mem_ctrls0.perBankWrBursts::1            13245                       # Per bank write bursts
system.mem_ctrls0.perBankWrBursts::2            13176                       # Per bank write bursts
system.mem_ctrls0.perBankWrBursts::3            13378                       # Per bank write bursts
system.mem_ctrls0.perBankWrBursts::4            13234                       # Per bank write bursts
system.mem_ctrls0.perBankWrBursts::5            13330                       # Per bank write bursts
system.mem_ctrls0.perBankWrBursts::6            13232                       # Per bank write bursts
system.mem_ctrls0.perBankWrBursts::7            13463                       # Per bank write bursts
system.mem_ctrls0.perBankWrBursts::8            13160                       # Per bank write bursts
system.mem_ctrls0.perBankWrBursts::9            13361                       # Per bank write bursts
system.mem_ctrls0.perBankWrBursts::10           13150                       # Per bank write bursts
system.mem_ctrls0.perBankWrBursts::11           13138                       # Per bank write bursts
system.mem_ctrls0.perBankWrBursts::12           13077                       # Per bank write bursts
system.mem_ctrls0.perBankWrBursts::13           13071                       # Per bank write bursts
system.mem_ctrls0.perBankWrBursts::14           13358                       # Per bank write bursts
system.mem_ctrls0.perBankWrBursts::15           13147                       # Per bank write bursts
system.mem_ctrls0.numRdRetry                   105782                       # Number of times read queue was full causing retry
system.mem_ctrls0.numWrRetry                     2708                       # Number of times write queue was full causing retry
system.mem_ctrls0.totGap                 130716883500                       # Total gap between requests
system.mem_ctrls0.readPktSize::0                    0                       # Read request sizes (log2)
system.mem_ctrls0.readPktSize::1                    0                       # Read request sizes (log2)
system.mem_ctrls0.readPktSize::2                    0                       # Read request sizes (log2)
system.mem_ctrls0.readPktSize::3                    0                       # Read request sizes (log2)
system.mem_ctrls0.readPktSize::4                    0                       # Read request sizes (log2)
system.mem_ctrls0.readPktSize::5                    0                       # Read request sizes (log2)
system.mem_ctrls0.readPktSize::6               336130                       # Read request sizes (log2)
system.mem_ctrls0.writePktSize::0                   0                       # Write request sizes (log2)
system.mem_ctrls0.writePktSize::1                   0                       # Write request sizes (log2)
system.mem_ctrls0.writePktSize::2                   0                       # Write request sizes (log2)
system.mem_ctrls0.writePktSize::3                   0                       # Write request sizes (log2)
system.mem_ctrls0.writePktSize::4                   0                       # Write request sizes (log2)
system.mem_ctrls0.writePktSize::5                   0                       # Write request sizes (log2)
system.mem_ctrls0.writePktSize::6              211812                       # Write request sizes (log2)
system.mem_ctrls0.rdQLenPdf::0                 175688                       # What read queue length does an incoming req see
system.mem_ctrls0.rdQLenPdf::1                   5094                       # What read queue length does an incoming req see
system.mem_ctrls0.rdQLenPdf::2                   2452                       # What read queue length does an incoming req see
system.mem_ctrls0.rdQLenPdf::3                   1114                       # What read queue length does an incoming req see
system.mem_ctrls0.rdQLenPdf::4                   1218                       # What read queue length does an incoming req see
system.mem_ctrls0.rdQLenPdf::5                   1311                       # What read queue length does an incoming req see
system.mem_ctrls0.rdQLenPdf::6                   1495                       # What read queue length does an incoming req see
system.mem_ctrls0.rdQLenPdf::7                   1639                       # What read queue length does an incoming req see
system.mem_ctrls0.rdQLenPdf::8                   1682                       # What read queue length does an incoming req see
system.mem_ctrls0.rdQLenPdf::9                   1768                       # What read queue length does an incoming req see
system.mem_ctrls0.rdQLenPdf::10                  1722                       # What read queue length does an incoming req see
system.mem_ctrls0.rdQLenPdf::11                  1758                       # What read queue length does an incoming req see
system.mem_ctrls0.rdQLenPdf::12                  1825                       # What read queue length does an incoming req see
system.mem_ctrls0.rdQLenPdf::13                  1760                       # What read queue length does an incoming req see
system.mem_ctrls0.rdQLenPdf::14                  1835                       # What read queue length does an incoming req see
system.mem_ctrls0.rdQLenPdf::15                  1712                       # What read queue length does an incoming req see
system.mem_ctrls0.rdQLenPdf::16                  1851                       # What read queue length does an incoming req see
system.mem_ctrls0.rdQLenPdf::17                  1823                       # What read queue length does an incoming req see
system.mem_ctrls0.rdQLenPdf::18                  1713                       # What read queue length does an incoming req see
system.mem_ctrls0.rdQLenPdf::19                  1682                       # What read queue length does an incoming req see
system.mem_ctrls0.rdQLenPdf::20                  1690                       # What read queue length does an incoming req see
system.mem_ctrls0.rdQLenPdf::21                  1641                       # What read queue length does an incoming req see
system.mem_ctrls0.rdQLenPdf::22                  1584                       # What read queue length does an incoming req see
system.mem_ctrls0.rdQLenPdf::23                  1628                       # What read queue length does an incoming req see
system.mem_ctrls0.rdQLenPdf::24                  1550                       # What read queue length does an incoming req see
system.mem_ctrls0.rdQLenPdf::25                  1517                       # What read queue length does an incoming req see
system.mem_ctrls0.rdQLenPdf::26                  1539                       # What read queue length does an incoming req see
system.mem_ctrls0.rdQLenPdf::27                  1478                       # What read queue length does an incoming req see
system.mem_ctrls0.rdQLenPdf::28                  1466                       # What read queue length does an incoming req see
system.mem_ctrls0.rdQLenPdf::29                  1482                       # What read queue length does an incoming req see
system.mem_ctrls0.rdQLenPdf::30                  1613                       # What read queue length does an incoming req see
system.mem_ctrls0.rdQLenPdf::31                107788                       # What read queue length does an incoming req see
system.mem_ctrls0.wrQLenPdf::0                  37714                       # What write queue length does an incoming req see
system.mem_ctrls0.wrQLenPdf::1                  38663                       # What write queue length does an incoming req see
system.mem_ctrls0.wrQLenPdf::2                  39204                       # What write queue length does an incoming req see
system.mem_ctrls0.wrQLenPdf::3                  39491                       # What write queue length does an incoming req see
system.mem_ctrls0.wrQLenPdf::4                  39290                       # What write queue length does an incoming req see
system.mem_ctrls0.wrQLenPdf::5                   5404                       # What write queue length does an incoming req see
system.mem_ctrls0.wrQLenPdf::6                   5913                       # What write queue length does an incoming req see
system.mem_ctrls0.wrQLenPdf::7                   6133                       # What write queue length does an incoming req see
system.mem_ctrls0.bytesPerActivate::samples       164615                       # Bytes accessed per row activation
system.mem_ctrls0.bytesPerActivate::mean   213.023212                       # Bytes accessed per row activation
system.mem_ctrls0.bytesPerActivate::gmean   159.421870                       # Bytes accessed per row activation
system.mem_ctrls0.bytesPerActivate::stdev   169.126009                       # Bytes accessed per row activation
system.mem_ctrls0.bytesPerActivate::0-127        57839     35.14%     35.14% # Bytes accessed per row activation
system.mem_ctrls0.bytesPerActivate::128-255        36337     22.07%     57.21% # Bytes accessed per row activation
system.mem_ctrls0.bytesPerActivate::256-383        54801     33.29%     90.50% # Bytes accessed per row activation
system.mem_ctrls0.bytesPerActivate::384-511         6232      3.79%     94.29% # Bytes accessed per row activation
system.mem_ctrls0.bytesPerActivate::512-639         4229      2.57%     96.86% # Bytes accessed per row activation
system.mem_ctrls0.bytesPerActivate::640-767         1947      1.18%     98.04% # Bytes accessed per row activation
system.mem_ctrls0.bytesPerActivate::768-895         1082      0.66%     98.70% # Bytes accessed per row activation
system.mem_ctrls0.bytesPerActivate::896-1023          772      0.47%     99.16% # Bytes accessed per row activation
system.mem_ctrls0.bytesPerActivate::1024-1151         1376      0.84%    100.00% # Bytes accessed per row activation
system.mem_ctrls0.bytesPerActivate::total       164615                       # Bytes accessed per row activation
system.mem_ctrls0.rdPerTurnAround::samples        37924                       # Reads before turning the bus around for writes
system.mem_ctrls0.rdPerTurnAround::mean      8.861803                       # Reads before turning the bus around for writes
system.mem_ctrls0.rdPerTurnAround::stdev    23.689867                       # Reads before turning the bus around for writes
system.mem_ctrls0.rdPerTurnAround::0-127        37914     99.97%     99.97% # Reads before turning the bus around for writes
system.mem_ctrls0.rdPerTurnAround::128-255            9      0.02%    100.00% # Reads before turning the bus around for writes
system.mem_ctrls0.rdPerTurnAround::3968-4095            1      0.00%    100.00% # Reads before turning the bus around for writes
system.mem_ctrls0.rdPerTurnAround::total        37924                       # Reads before turning the bus around for writes
system.mem_ctrls0.wrPerTurnAround::samples        37924                       # Writes before turning the bus around for reads
system.mem_ctrls0.wrPerTurnAround::mean      5.585065                       # Writes before turning the bus around for reads
system.mem_ctrls0.wrPerTurnAround::gmean     5.405038                       # Writes before turning the bus around for reads
system.mem_ctrls0.wrPerTurnAround::stdev     1.836977                       # Writes before turning the bus around for reads
system.mem_ctrls0.wrPerTurnAround::4-7          34430     90.79%     90.79% # Writes before turning the bus around for reads
system.mem_ctrls0.wrPerTurnAround::8-11          2490      6.57%     97.35% # Writes before turning the bus around for reads
system.mem_ctrls0.wrPerTurnAround::12-15          622      1.64%     98.99% # Writes before turning the bus around for reads
system.mem_ctrls0.wrPerTurnAround::16-19          382      1.01%    100.00% # Writes before turning the bus around for reads
system.mem_ctrls0.wrPerTurnAround::total        37924                       # Writes before turning the bus around for reads
system.mem_ctrls0.totQLat                 34467695589                       # Total ticks spent queuing
system.mem_ctrls0.totMemAccLat            40769908089                       # Total ticks spent from burst creation until serviced by the DRAM
system.mem_ctrls0.totBusLat                1680590000                       # Total ticks spent in databus transfers
system.mem_ctrls0.avgQLat                   102546.41                       # Average queueing delay per DRAM burst
system.mem_ctrls0.avgBusLat                   5000.00                       # Average bus latency per DRAM burst
system.mem_ctrls0.avgMemAccLat              121296.41                       # Average memory access latency per DRAM burst
system.mem_ctrls0.avgRdBW                      164.57                       # Average DRAM read bandwidth in MiByte/s
system.mem_ctrls0.avgWrBW                      103.70                       # Average achieved write bandwidth in MiByte/s
system.mem_ctrls0.avgRdBWSys                   164.57                       # Average system read bandwidth in MiByte/s
system.mem_ctrls0.avgWrBWSys                   103.70                       # Average system write bandwidth in MiByte/s
system.mem_ctrls0.peakBW                     12800.00                       # Theoretical peak bandwidth in MiByte/s
system.mem_ctrls0.busUtil                        2.10                       # Data bus utilization in percentage
system.mem_ctrls0.busUtilRead                    1.29                       # Data bus utilization in percentage for reads
system.mem_ctrls0.busUtilWrite                   0.81                       # Data bus utilization in percentage for writes
system.mem_ctrls0.avgRdQLen                      1.27                       # Average read queue length when enqueuing
system.mem_ctrls0.avgWrQLen                      2.96                       # Average write queue length when enqueuing
system.mem_ctrls0.readRowHits                  248164                       # Number of row buffer hits during reads
system.mem_ctrls0.writeRowHits                 135143                       # Number of row buffer hits during writes
system.mem_ctrls0.readRowHitRate                73.83                       # Row buffer hit rate for reads
system.mem_ctrls0.writeRowHitRate               63.80                       # Row buffer hit rate for writes
system.mem_ctrls0.avgGap                    238559.71                       # Average gap between requests
system.mem_ctrls0.pageHitRate                   69.96                       # Row buffer hit rate, read and write combined
system.mem_ctrls0.memoryStateTime::IDLE   28041487500                       # Time in different power states
system.mem_ctrls0.memoryStateTime::REF     4364880000                       # Time in different power states
system.mem_ctrls0.memoryStateTime::PRE_PDN            0                       # Time in different power states
system.mem_ctrls0.memoryStateTime::ACT    98309576500                       # Time in different power states
system.mem_ctrls0.memoryStateTime::ACT_PDN            0                       # Time in different power states
system.mem_ctrls0.actEnergy::0              629090280                       # Energy for activate commands per rank (pJ)
system.mem_ctrls0.actEnergy::1              615399120                       # Energy for activate commands per rank (pJ)
system.mem_ctrls0.preEnergy::0              343253625                       # Energy for precharge commands per rank (pJ)
system.mem_ctrls0.preEnergy::1              335783250                       # Energy for precharge commands per rank (pJ)
system.mem_ctrls0.readEnergy::0            1318512000                       # Energy for read commands per rank (pJ)
system.mem_ctrls0.readEnergy::1            1303153800                       # Energy for read commands per rank (pJ)
system.mem_ctrls0.writeEnergy::0            689122080                       # Energy for write commands per rank (pJ)
system.mem_ctrls0.writeEnergy::1            683393760                       # Energy for write commands per rank (pJ)
system.mem_ctrls0.refreshEnergy::0         8537705280                       # Energy for refresh commands per rank (pJ)
system.mem_ctrls0.refreshEnergy::1         8537705280                       # Energy for refresh commands per rank (pJ)
system.mem_ctrls0.actBackEnergy::0        49715051445                       # Energy for active background per rank (pJ)
system.mem_ctrls0.actBackEnergy::1        49278592755                       # Energy for active background per rank (pJ)
system.mem_ctrls0.preBackEnergy::0        34819806750                       # Energy for precharge background per rank (pJ)
system.mem_ctrls0.preBackEnergy::1        35202665250                       # Energy for precharge background per rank (pJ)
system.mem_ctrls0.totalEnergy::0          96052541460                       # Total energy per rank (pJ)
system.mem_ctrls0.totalEnergy::1          95956693215                       # Total energy per rank (pJ)
system.mem_ctrls0.averagePower::0          734.819477                       # Core power per rank (mW)
system.mem_ctrls0.averagePower::1          734.086220                       # Core power per rank (mW)
system.mem_ctrls1.bytes_read::ruby.dir_cntrl1     20814144                       # Number of bytes read from this memory
system.mem_ctrls1.bytes_read::total          20814144                       # Number of bytes read from this memory
system.mem_ctrls1.bytes_written::ruby.dir_cntrl1     12917312                       # Number of bytes written to this memory
system.mem_ctrls1.bytes_written::total       12917312                       # Number of bytes written to this memory
system.mem_ctrls1.num_reads::ruby.dir_cntrl1       325221                       # Number of read requests responded to by this memory
system.mem_ctrls1.num_reads::total             325221                       # Number of read requests responded to by this memory
system.mem_ctrls1.num_writes::ruby.dir_cntrl1       201833                       # Number of write requests responded to by this memory
system.mem_ctrls1.num_writes::total            201833                       # Number of write requests responded to by this memory
system.mem_ctrls1.bw_read::ruby.dir_cntrl1    159230042                       # Total read bandwidth from this memory (bytes/s)
system.mem_ctrls1.bw_read::total            159230042                       # Total read bandwidth from this memory (bytes/s)
system.mem_ctrls1.bw_write::ruby.dir_cntrl1     98818579                       # Write bandwidth from this memory (bytes/s)
system.mem_ctrls1.bw_write::total            98818579                       # Write bandwidth from this memory (bytes/s)
system.mem_ctrls1.bw_total::ruby.dir_cntrl1    258048621                       # Total bandwidth to/from this memory (bytes/s)
system.mem_ctrls1.bw_total::total           258048621                       # Total bandwidth to/from this memory (bytes/s)
system.mem_ctrls1.readReqs                     325221                       # Number of read requests accepted
system.mem_ctrls1.writeReqs                    201833                       # Number of write requests accepted
system.mem_ctrls1.readBursts                   325221                       # Number of DRAM read bursts, including those serviced by the write queue
system.mem_ctrls1.writeBursts                  201833                       # Number of DRAM write bursts, including those merged in the write queue
system.mem_ctrls1.bytesReadDRAM              20813568                       # Total number of bytes read from DRAM
system.mem_ctrls1.bytesReadWrQ                    576                       # Total number of bytes read from write queue
system.mem_ctrls1.bytesWritten               12917184                       # Total number of bytes written to DRAM
system.mem_ctrls1.bytesReadSys               20814144                       # Total read bytes from the system interface side
system.mem_ctrls1.bytesWrittenSys            12917312                       # Total written bytes from the system interface side
system.mem_ctrls1.servicedByWrQ                     9                       # Number of DRAM read bursts serviced by the write queue
system.mem_ctrls1.mergedWrBursts                    0                       # Number of DRAM write bursts merged with an existing one
system.mem_ctrls1.neitherReadNorWriteReqs            0                       # Number of requests that are neither read nor write
system.mem_ctrls1.perBankRdBursts::0            20059                       # Per bank write bursts
system.mem_ctrls1.perBankRdBursts::1            20698                       # Per bank write bursts
system.mem_ctrls1.perBankRdBursts::2            20233                       # Per bank write bursts
system.mem_ctrls1.perBankRdBursts::3            20716                       # Per bank write bursts
system.mem_ctrls1.perBankRdBursts::4            20404                       # Per bank write bursts
system.mem_ctrls1.perBankRdBursts::5            20581                       # Per bank write bursts
system.mem_ctrls1.perBankRdBursts::6            20486                       # Per bank write bursts
system.mem_ctrls1.perBankRdBursts::7            20559                       # Per bank write bursts
system.mem_ctrls1.perBankRdBursts::8            20196                       # Per bank write bursts
system.mem_ctrls1.perBankRdBursts::9            20382                       # Per bank write bursts
system.mem_ctrls1.perBankRdBursts::10           20150                       # Per bank write bursts
system.mem_ctrls1.perBankRdBursts::11           20570                       # Per bank write bursts
system.mem_ctrls1.perBankRdBursts::12           20029                       # Per bank write bursts
system.mem_ctrls1.perBankRdBursts::13           19908                       # Per bank write bursts
system.mem_ctrls1.perBankRdBursts::14           20108                       # Per bank write bursts
system.mem_ctrls1.perBankRdBursts::15           20133                       # Per bank write bursts
system.mem_ctrls1.perBankWrBursts::0            12669                       # Per bank write bursts
system.mem_ctrls1.perBankWrBursts::1            12634                       # Per bank write bursts
system.mem_ctrls1.perBankWrBursts::2            12558                       # Per bank write bursts
system.mem_ctrls1.perBankWrBursts::3            12758                       # Per bank write bursts
system.mem_ctrls1.perBankWrBursts::4            12626                       # Per bank write bursts
system.mem_ctrls1.perBankWrBursts::5            12714                       # Per bank write bursts
system.mem_ctrls1.perBankWrBursts::6            12598                       # Per bank write bursts
system.mem_ctrls1.perBankWrBursts::7            12831                       # Per bank write bursts
system.mem_ctrls1.perBankWrBursts::8            12532                       # Per bank write bursts
system.mem_ctrls1.perBankWrBursts::9            12725                       # Per bank write bursts
system.mem_ctrls1.perBankWrBursts::10           12529                       # Per bank write bursts
system.mem_ctrls1.perBankWrBursts::11           12514                       # Per bank write bursts
system.mem_ctrls1.perBankWrBursts::12           12465                       # Per bank write bursts
system.mem_ctrls1.perBankWrBursts::13           12450                       # Per bank write bursts
system.mem_ctrls1.perBankWrBursts::14           12692                       # Per bank write bursts
system.mem_ctrls1.perBankWrBursts::15           12536                       # Per bank write bursts
system.mem_ctrls1.numRdRetry                    86400                       # Number of times read queue was full causing retry
system.mem_ctrls1.numWrRetry                     2875                       # Number of times write queue was full causing retry
system.mem_ctrls1.totGap                 130716609000                       # Total gap between requests
system.mem_ctrls1.readPktSize::0                    0                       # Read request sizes (log2)
system.mem_ctrls1.readPktSize::1                    0                       # Read request sizes (log2)
system.mem_ctrls1.readPktSize::2                    0                       # Read request sizes (log2)
system.mem_ctrls1.readPktSize::3                    0                       # Read request sizes (log2)
system.mem_ctrls1.readPktSize::4                    0                       # Read request sizes (log2)
system.mem_ctrls1.readPktSize::5                    0                       # Read request sizes (log2)
system.mem_ctrls1.readPktSize::6               325221                       # Read request sizes (log2)
system.mem_ctrls1.writePktSize::0                   0                       # Write request sizes (log2)
system.mem_ctrls1.writePktSize::1                   0                       # Write request sizes (log2)
system.mem_ctrls1.writePktSize::2                   0                       # Write request sizes (log2)
system.mem_ctrls1.writePktSize::3                   0                       # Write request sizes (log2)
system.mem_ctrls1.writePktSize::4                   0                       # Write request sizes (log2)
system.mem_ctrls1.writePktSize::5                   0                       # Write request sizes (log2)
system.mem_ctrls1.writePktSize::6              201833                       # Write request sizes (log2)
system.mem_ctrls1.rdQLenPdf::0                 171295                       # What read queue length does an incoming req see
system.mem_ctrls1.rdQLenPdf::1                   1909                       # What read queue length does an incoming req see
system.mem_ctrls1.rdQLenPdf::2                   1466                       # What read queue length does an incoming req see
system.mem_ctrls1.rdQLenPdf::3                   1675                       # What read queue length does an incoming req see
system.mem_ctrls1.rdQLenPdf::4                   1893                       # What read queue length does an incoming req see
system.mem_ctrls1.rdQLenPdf::5                   2141                       # What read queue length does an incoming req see
system.mem_ctrls1.rdQLenPdf::6                   2180                       # What read queue length does an incoming req see
system.mem_ctrls1.rdQLenPdf::7                   2378                       # What read queue length does an incoming req see
system.mem_ctrls1.rdQLenPdf::8                   2605                       # What read queue length does an incoming req see
system.mem_ctrls1.rdQLenPdf::9                   2639                       # What read queue length does an incoming req see
system.mem_ctrls1.rdQLenPdf::10                  2595                       # What read queue length does an incoming req see
system.mem_ctrls1.rdQLenPdf::11                  2689                       # What read queue length does an incoming req see
system.mem_ctrls1.rdQLenPdf::12                  2687                       # What read queue length does an incoming req see
system.mem_ctrls1.rdQLenPdf::13                  2647                       # What read queue length does an incoming req see
system.mem_ctrls1.rdQLenPdf::14                  2553                       # What read queue length does an incoming req see
system.mem_ctrls1.rdQLenPdf::15                  2722                       # What read queue length does an incoming req see
system.mem_ctrls1.rdQLenPdf::16                  2559                       # What read queue length does an incoming req see
system.mem_ctrls1.rdQLenPdf::17                  2393                       # What read queue length does an incoming req see
system.mem_ctrls1.rdQLenPdf::18                  2336                       # What read queue length does an incoming req see
system.mem_ctrls1.rdQLenPdf::19                  2170                       # What read queue length does an incoming req see
system.mem_ctrls1.rdQLenPdf::20                  2159                       # What read queue length does an incoming req see
system.mem_ctrls1.rdQLenPdf::21                  2077                       # What read queue length does an incoming req see
system.mem_ctrls1.rdQLenPdf::22                  2093                       # What read queue length does an incoming req see
system.mem_ctrls1.rdQLenPdf::23                  2014                       # What read queue length does an incoming req see
system.mem_ctrls1.rdQLenPdf::24                  1952                       # What read queue length does an incoming req see
system.mem_ctrls1.rdQLenPdf::25                  1829                       # What read queue length does an incoming req see
system.mem_ctrls1.rdQLenPdf::26                  1771                       # What read queue length does an incoming req see
system.mem_ctrls1.rdQLenPdf::27                  1748                       # What read queue length does an incoming req see
system.mem_ctrls1.rdQLenPdf::28                  1834                       # What read queue length does an incoming req see
system.mem_ctrls1.rdQLenPdf::29                  1789                       # What read queue length does an incoming req see
system.mem_ctrls1.rdQLenPdf::30                  1766                       # What read queue length does an incoming req see
system.mem_ctrls1.rdQLenPdf::31                 88648                       # What read queue length does an incoming req see
system.mem_ctrls1.wrQLenPdf::0                  35932                       # What write queue length does an incoming req see
system.mem_ctrls1.wrQLenPdf::1                  36738                       # What write queue length does an incoming req see
system.mem_ctrls1.wrQLenPdf::2                  37035                       # What write queue length does an incoming req see
system.mem_ctrls1.wrQLenPdf::3                  37235                       # What write queue length does an incoming req see
system.mem_ctrls1.wrQLenPdf::4                  37505                       # What write queue length does an incoming req see
system.mem_ctrls1.wrQLenPdf::5                   5359                       # What write queue length does an incoming req see
system.mem_ctrls1.wrQLenPdf::6                   5793                       # What write queue length does an incoming req see
system.mem_ctrls1.wrQLenPdf::7                   6236                       # What write queue length does an incoming req see
system.mem_ctrls1.bytesPerActivate::samples       136875                       # Bytes accessed per row activation
system.mem_ctrls1.bytesPerActivate::mean   246.430510                       # Bytes accessed per row activation
system.mem_ctrls1.bytesPerActivate::gmean   193.942448                       # Bytes accessed per row activation
system.mem_ctrls1.bytesPerActivate::stdev   174.060853                       # Bytes accessed per row activation
system.mem_ctrls1.bytesPerActivate::0-127        29082     21.25%     21.25% # Bytes accessed per row activation
system.mem_ctrls1.bytesPerActivate::128-255        36080     26.36%     47.61% # Bytes accessed per row activation
system.mem_ctrls1.bytesPerActivate::256-383        54799     40.04%     87.64% # Bytes accessed per row activation
system.mem_ctrls1.bytesPerActivate::384-511         6368      4.65%     92.30% # Bytes accessed per row activation
system.mem_ctrls1.bytesPerActivate::512-639         4734      3.46%     95.75% # Bytes accessed per row activation
system.mem_ctrls1.bytesPerActivate::640-767         2164      1.58%     97.33% # Bytes accessed per row activation
system.mem_ctrls1.bytesPerActivate::768-895         1175      0.86%     98.19% # Bytes accessed per row activation
system.mem_ctrls1.bytesPerActivate::896-1023          858      0.63%     98.82% # Bytes accessed per row activation
system.mem_ctrls1.bytesPerActivate::1024-1151         1615      1.18%    100.00% # Bytes accessed per row activation
system.mem_ctrls1.bytesPerActivate::total       136875                       # Bytes accessed per row activation
system.mem_ctrls1.rdPerTurnAround::samples        36178                       # Reads before turning the bus around for writes
system.mem_ctrls1.rdPerTurnAround::mean      8.988805                       # Reads before turning the bus around for writes
system.mem_ctrls1.rdPerTurnAround::stdev    20.588958                       # Reads before turning the bus around for writes
system.mem_ctrls1.rdPerTurnAround::0-127        36165     99.96%     99.96% # Reads before turning the bus around for writes
system.mem_ctrls1.rdPerTurnAround::128-255           11      0.03%     99.99% # Reads before turning the bus around for writes
system.mem_ctrls1.rdPerTurnAround::1152-1279            1      0.00%    100.00% # Reads before turning the bus around for writes
system.mem_ctrls1.rdPerTurnAround::2816-2943            1      0.00%    100.00% # Reads before turning the bus around for writes
system.mem_ctrls1.rdPerTurnAround::total        36178                       # Reads before turning the bus around for writes
system.mem_ctrls1.wrPerTurnAround::samples        36178                       # Writes before turning the bus around for reads
system.mem_ctrls1.wrPerTurnAround::mean      5.578832                       # Writes before turning the bus around for reads
system.mem_ctrls1.wrPerTurnAround::gmean     5.390699                       # Writes before turning the bus around for reads
system.mem_ctrls1.wrPerTurnAround::stdev     1.896350                       # Writes before turning the bus around for reads
system.mem_ctrls1.wrPerTurnAround::4-7          32892     90.92%     90.92% # Writes before turning the bus around for reads
system.mem_ctrls1.wrPerTurnAround::8-11          2187      6.05%     96.96% # Writes before turning the bus around for reads
system.mem_ctrls1.wrPerTurnAround::12-15          682      1.89%     98.85% # Writes before turning the bus around for reads
system.mem_ctrls1.wrPerTurnAround::16-19          417      1.15%    100.00% # Writes before turning the bus around for reads
system.mem_ctrls1.wrPerTurnAround::total        36178                       # Writes before turning the bus around for reads
system.mem_ctrls1.totQLat                 30635297592                       # Total ticks spent queuing
system.mem_ctrls1.totMemAccLat            36733022592                       # Total ticks spent from burst creation until serviced by the DRAM
system.mem_ctrls1.totBusLat                1626060000                       # Total ticks spent in databus transfers
system.mem_ctrls1.avgQLat                    94201.01                       # Average queueing delay per DRAM burst
system.mem_ctrls1.avgBusLat                   5000.00                       # Average bus latency per DRAM burst
system.mem_ctrls1.avgMemAccLat              112951.01                       # Average memory access latency per DRAM burst
system.mem_ctrls1.avgRdBW                      159.23                       # Average DRAM read bandwidth in MiByte/s
system.mem_ctrls1.avgWrBW                       98.82                       # Average achieved write bandwidth in MiByte/s
system.mem_ctrls1.avgRdBWSys                   159.23                       # Average system read bandwidth in MiByte/s
system.mem_ctrls1.avgWrBWSys                    98.82                       # Average system write bandwidth in MiByte/s
system.mem_ctrls1.peakBW                     12800.00                       # Theoretical peak bandwidth in MiByte/s
system.mem_ctrls1.busUtil                        2.02                       # Data bus utilization in percentage
system.mem_ctrls1.busUtilRead                    1.24                       # Data bus utilization in percentage for reads
system.mem_ctrls1.busUtilWrite                   0.77                       # Data bus utilization in percentage for writes
system.mem_ctrls1.avgRdQLen                      1.25                       # Average read queue length when enqueuing
system.mem_ctrls1.avgWrQLen                      2.98                       # Average write queue length when enqueuing
system.mem_ctrls1.readRowHits                  249166                       # Number of row buffer hits during reads
system.mem_ctrls1.writeRowHits                 140998                       # Number of row buffer hits during writes
system.mem_ctrls1.readRowHitRate                76.62                       # Row buffer hit rate for reads
system.mem_ctrls1.writeRowHitRate               69.86                       # Row buffer hit rate for writes
system.mem_ctrls1.avgGap                    248013.69                       # Average gap between requests
system.mem_ctrls1.pageHitRate                   74.03                       # Row buffer hit rate, read and write combined
system.mem_ctrls1.memoryStateTime::IDLE   28549050750                       # Time in different power states
system.mem_ctrls1.memoryStateTime::REF     4364880000                       # Time in different power states
system.mem_ctrls1.memoryStateTime::PRE_PDN            0                       # Time in different power states
system.mem_ctrls1.memoryStateTime::ACT    97802110750                       # Time in different power states
system.mem_ctrls1.memoryStateTime::ACT_PDN            0                       # Time in different power states
system.mem_ctrls1.actEnergy::0              524006280                       # Energy for activate commands per rank (pJ)
system.mem_ctrls1.actEnergy::1              510768720                       # Energy for activate commands per rank (pJ)
system.mem_ctrls1.preEnergy::0              285916125                       # Energy for precharge commands per rank (pJ)
system.mem_ctrls1.preEnergy::1              278693250                       # Energy for precharge commands per rank (pJ)
system.mem_ctrls1.readEnergy::0            1277117400                       # Energy for read commands per rank (pJ)
system.mem_ctrls1.readEnergy::1            1259466000                       # Energy for read commands per rank (pJ)
system.mem_ctrls1.writeEnergy::0            656994240                       # Energy for write commands per rank (pJ)
system.mem_ctrls1.writeEnergy::1            650870640                       # Energy for write commands per rank (pJ)
system.mem_ctrls1.refreshEnergy::0         8537705280                       # Energy for refresh commands per rank (pJ)
system.mem_ctrls1.refreshEnergy::1         8537705280                       # Energy for refresh commands per rank (pJ)
system.mem_ctrls1.actBackEnergy::0        49153334400                       # Energy for active background per rank (pJ)
system.mem_ctrls1.actBackEnergy::1        48210838830                       # Energy for active background per rank (pJ)
system.mem_ctrls1.preBackEnergy::0        35312535000                       # Energy for precharge background per rank (pJ)
system.mem_ctrls1.preBackEnergy::1        36139285500                       # Energy for precharge background per rank (pJ)
system.mem_ctrls1.totalEnergy::0          95747608725                       # Total energy per rank (pJ)
system.mem_ctrls1.totalEnergy::1          95587628220                       # Total energy per rank (pJ)
system.mem_ctrls1.averagePower::0          732.486742                       # Core power per rank (mW)
system.mem_ctrls1.averagePower::1          731.262861                       # Core power per rank (mW)
system.mem_ctrls2.bytes_read::ruby.dir_cntrl2     20812544                       # Number of bytes read from this memory
system.mem_ctrls2.bytes_read::total          20812544                       # Number of bytes read from this memory
system.mem_ctrls2.bytes_written::ruby.dir_cntrl2     12917760                       # Number of bytes written to this memory
system.mem_ctrls2.bytes_written::total       12917760                       # Number of bytes written to this memory
system.mem_ctrls2.num_reads::ruby.dir_cntrl2       325196                       # Number of read requests responded to by this memory
system.mem_ctrls2.num_reads::total             325196                       # Number of read requests responded to by this memory
system.mem_ctrls2.num_writes::ruby.dir_cntrl2       201840                       # Number of write requests responded to by this memory
system.mem_ctrls2.num_writes::total            201840                       # Number of write requests responded to by this memory
system.mem_ctrls2.bw_read::ruby.dir_cntrl2    159217802                       # Total read bandwidth from this memory (bytes/s)
system.mem_ctrls2.bw_read::total            159217802                       # Total read bandwidth from this memory (bytes/s)
system.mem_ctrls2.bw_write::ruby.dir_cntrl2     98822006                       # Write bandwidth from this memory (bytes/s)
system.mem_ctrls2.bw_write::total            98822006                       # Write bandwidth from this memory (bytes/s)
system.mem_ctrls2.bw_total::ruby.dir_cntrl2    258039808                       # Total bandwidth to/from this memory (bytes/s)
system.mem_ctrls2.bw_total::total           258039808                       # Total bandwidth to/from this memory (bytes/s)
system.mem_ctrls2.readReqs                     325196                       # Number of read requests accepted
system.mem_ctrls2.writeReqs                    201840                       # Number of write requests accepted
system.mem_ctrls2.readBursts                   325196                       # Number of DRAM read bursts, including those serviced by the write queue
system.mem_ctrls2.writeBursts                  201840                       # Number of DRAM write bursts, including those merged in the write queue
system.mem_ctrls2.bytesReadDRAM              20811584                       # Total number of bytes read from DRAM
system.mem_ctrls2.bytesReadWrQ                    960                       # Total number of bytes read from write queue
system.mem_ctrls2.bytesWritten               12917504                       # Total number of bytes written to DRAM
system.mem_ctrls2.bytesReadSys               20812544                       # Total read bytes from the system interface side
system.mem_ctrls2.bytesWrittenSys            12917760                       # Total written bytes from the system interface side
system.mem_ctrls2.servicedByWrQ                    15                       # Number of DRAM read bursts serviced by the write queue
system.mem_ctrls2.mergedWrBursts                    0                       # Number of DRAM write bursts merged with an existing one
system.mem_ctrls2.neitherReadNorWriteReqs            0                       # Number of requests that are neither read nor write
system.mem_ctrls2.perBankRdBursts::0            20056                       # Per bank write bursts
system.mem_ctrls2.perBankRdBursts::1            20678                       # Per bank write bursts
system.mem_ctrls2.perBankRdBursts::2            20244                       # Per bank write bursts
system.mem_ctrls2.perBankRdBursts::3            20758                       # Per bank write bursts
system.mem_ctrls2.perBankRdBursts::4            20410                       # Per bank write bursts
system.mem_ctrls2.perBankRdBursts::5            20565                       # Per bank write bursts
system.mem_ctrls2.perBankRdBursts::6            20464                       # Per bank write bursts
system.mem_ctrls2.perBankRdBursts::7            20533                       # Per bank write bursts
system.mem_ctrls2.perBankRdBursts::8            20154                       # Per bank write bursts
system.mem_ctrls2.perBankRdBursts::9            20392                       # Per bank write bursts
system.mem_ctrls2.perBankRdBursts::10           20160                       # Per bank write bursts
system.mem_ctrls2.perBankRdBursts::11           20587                       # Per bank write bursts
system.mem_ctrls2.perBankRdBursts::12           20047                       # Per bank write bursts
system.mem_ctrls2.perBankRdBursts::13           19865                       # Per bank write bursts
system.mem_ctrls2.perBankRdBursts::14           20099                       # Per bank write bursts
system.mem_ctrls2.perBankRdBursts::15           20169                       # Per bank write bursts
system.mem_ctrls2.perBankWrBursts::0            12663                       # Per bank write bursts
system.mem_ctrls2.perBankWrBursts::1            12634                       # Per bank write bursts
system.mem_ctrls2.perBankWrBursts::2            12554                       # Per bank write bursts
system.mem_ctrls2.perBankWrBursts::3            12765                       # Per bank write bursts
system.mem_ctrls2.perBankWrBursts::4            12626                       # Per bank write bursts
system.mem_ctrls2.perBankWrBursts::5            12698                       # Per bank write bursts
system.mem_ctrls2.perBankWrBursts::6            12606                       # Per bank write bursts
system.mem_ctrls2.perBankWrBursts::7            12830                       # Per bank write bursts
system.mem_ctrls2.perBankWrBursts::8            12516                       # Per bank write bursts
system.mem_ctrls2.perBankWrBursts::9            12731                       # Per bank write bursts
system.mem_ctrls2.perBankWrBursts::10           12526                       # Per bank write bursts
system.mem_ctrls2.perBankWrBursts::11           12528                       # Per bank write bursts
system.mem_ctrls2.perBankWrBursts::12           12471                       # Per bank write bursts
system.mem_ctrls2.perBankWrBursts::13           12444                       # Per bank write bursts
system.mem_ctrls2.perBankWrBursts::14           12695                       # Per bank write bursts
system.mem_ctrls2.perBankWrBursts::15           12549                       # Per bank write bursts
system.mem_ctrls2.numRdRetry                    88156                       # Number of times read queue was full causing retry
system.mem_ctrls2.numWrRetry                     2933                       # Number of times write queue was full causing retry
system.mem_ctrls2.totGap                 130717340000                       # Total gap between requests
system.mem_ctrls2.readPktSize::0                    0                       # Read request sizes (log2)
system.mem_ctrls2.readPktSize::1                    0                       # Read request sizes (log2)
system.mem_ctrls2.readPktSize::2                    0                       # Read request sizes (log2)
system.mem_ctrls2.readPktSize::3                    0                       # Read request sizes (log2)
system.mem_ctrls2.readPktSize::4                    0                       # Read request sizes (log2)
system.mem_ctrls2.readPktSize::5                    0                       # Read request sizes (log2)
system.mem_ctrls2.readPktSize::6               325196                       # Read request sizes (log2)
system.mem_ctrls2.writePktSize::0                   0                       # Write request sizes (log2)
system.mem_ctrls2.writePktSize::1                   0                       # Write request sizes (log2)
system.mem_ctrls2.writePktSize::2                   0                       # Write request sizes (log2)
system.mem_ctrls2.writePktSize::3                   0                       # Write request sizes (log2)
system.mem_ctrls2.writePktSize::4                   0                       # Write request sizes (log2)
system.mem_ctrls2.writePktSize::5                   0                       # Write request sizes (log2)
system.mem_ctrls2.writePktSize::6              201840                       # Write request sizes (log2)
system.mem_ctrls2.rdQLenPdf::0                 171459                       # What read queue length does an incoming req see
system.mem_ctrls2.rdQLenPdf::1                   1661                       # What read queue length does an incoming req see
system.mem_ctrls2.rdQLenPdf::2                   1529                       # What read queue length does an incoming req see
system.mem_ctrls2.rdQLenPdf::3                   1702                       # What read queue length does an incoming req see
system.mem_ctrls2.rdQLenPdf::4                   1807                       # What read queue length does an incoming req see
system.mem_ctrls2.rdQLenPdf::5                   1986                       # What read queue length does an incoming req see
system.mem_ctrls2.rdQLenPdf::6                   2126                       # What read queue length does an incoming req see
system.mem_ctrls2.rdQLenPdf::7                   2283                       # What read queue length does an incoming req see
system.mem_ctrls2.rdQLenPdf::8                   2555                       # What read queue length does an incoming req see
system.mem_ctrls2.rdQLenPdf::9                   2609                       # What read queue length does an incoming req see
system.mem_ctrls2.rdQLenPdf::10                  2745                       # What read queue length does an incoming req see
system.mem_ctrls2.rdQLenPdf::11                  2729                       # What read queue length does an incoming req see
system.mem_ctrls2.rdQLenPdf::12                  2730                       # What read queue length does an incoming req see
system.mem_ctrls2.rdQLenPdf::13                  2619                       # What read queue length does an incoming req see
system.mem_ctrls2.rdQLenPdf::14                  2523                       # What read queue length does an incoming req see
system.mem_ctrls2.rdQLenPdf::15                  2488                       # What read queue length does an incoming req see
system.mem_ctrls2.rdQLenPdf::16                  2397                       # What read queue length does an incoming req see
system.mem_ctrls2.rdQLenPdf::17                  2305                       # What read queue length does an incoming req see
system.mem_ctrls2.rdQLenPdf::18                  2220                       # What read queue length does an incoming req see
system.mem_ctrls2.rdQLenPdf::19                  2292                       # What read queue length does an incoming req see
system.mem_ctrls2.rdQLenPdf::20                  2154                       # What read queue length does an incoming req see
system.mem_ctrls2.rdQLenPdf::21                  2083                       # What read queue length does an incoming req see
system.mem_ctrls2.rdQLenPdf::22                  1983                       # What read queue length does an incoming req see
system.mem_ctrls2.rdQLenPdf::23                  1907                       # What read queue length does an incoming req see
system.mem_ctrls2.rdQLenPdf::24                  1889                       # What read queue length does an incoming req see
system.mem_ctrls2.rdQLenPdf::25                  1819                       # What read queue length does an incoming req see
system.mem_ctrls2.rdQLenPdf::26                  1781                       # What read queue length does an incoming req see
system.mem_ctrls2.rdQLenPdf::27                  1692                       # What read queue length does an incoming req see
system.mem_ctrls2.rdQLenPdf::28                  1664                       # What read queue length does an incoming req see
system.mem_ctrls2.rdQLenPdf::29                  1613                       # What read queue length does an incoming req see
system.mem_ctrls2.rdQLenPdf::30                  1652                       # What read queue length does an incoming req see
system.mem_ctrls2.rdQLenPdf::31                 90179                       # What read queue length does an incoming req see
system.mem_ctrls2.wrQLenPdf::0                  35892                       # What write queue length does an incoming req see
system.mem_ctrls2.wrQLenPdf::1                  36695                       # What write queue length does an incoming req see
system.mem_ctrls2.wrQLenPdf::2                  37022                       # What write queue length does an incoming req see
system.mem_ctrls2.wrQLenPdf::3                  37317                       # What write queue length does an incoming req see
system.mem_ctrls2.wrQLenPdf::4                  37467                       # What write queue length does an incoming req see
system.mem_ctrls2.wrQLenPdf::5                   5288                       # What write queue length does an incoming req see
system.mem_ctrls2.wrQLenPdf::6                   5824                       # What write queue length does an incoming req see
system.mem_ctrls2.wrQLenPdf::7                   6335                       # What write queue length does an incoming req see
system.mem_ctrls2.bytesPerActivate::samples       136377                       # Bytes accessed per row activation
system.mem_ctrls2.bytesPerActivate::mean   247.319123                       # Bytes accessed per row activation
system.mem_ctrls2.bytesPerActivate::gmean   194.680769                       # Bytes accessed per row activation
system.mem_ctrls2.bytesPerActivate::stdev   174.122676                       # Bytes accessed per row activation
system.mem_ctrls2.bytesPerActivate::0-127        29045     21.30%     21.30% # Bytes accessed per row activation
system.mem_ctrls2.bytesPerActivate::128-255        34960     25.63%     46.93% # Bytes accessed per row activation
system.mem_ctrls2.bytesPerActivate::256-383        55435     40.65%     87.58% # Bytes accessed per row activation
system.mem_ctrls2.bytesPerActivate::384-511         6341      4.65%     92.23% # Bytes accessed per row activation
system.mem_ctrls2.bytesPerActivate::512-639         4868      3.57%     95.80% # Bytes accessed per row activation
system.mem_ctrls2.bytesPerActivate::640-767         2091      1.53%     97.33% # Bytes accessed per row activation
system.mem_ctrls2.bytesPerActivate::768-895         1162      0.85%     98.19% # Bytes accessed per row activation
system.mem_ctrls2.bytesPerActivate::896-1023          823      0.60%     98.79% # Bytes accessed per row activation
system.mem_ctrls2.bytesPerActivate::1024-1151         1652      1.21%    100.00% # Bytes accessed per row activation
system.mem_ctrls2.bytesPerActivate::total       136377                       # Bytes accessed per row activation
system.mem_ctrls2.rdPerTurnAround::samples        36155                       # Reads before turning the bus around for writes
system.mem_ctrls2.rdPerTurnAround::mean      8.993528                       # Reads before turning the bus around for writes
system.mem_ctrls2.rdPerTurnAround::stdev    20.662660                       # Reads before turning the bus around for writes
system.mem_ctrls2.rdPerTurnAround::0-127        36140     99.96%     99.96% # Reads before turning the bus around for writes
system.mem_ctrls2.rdPerTurnAround::128-255           13      0.04%     99.99% # Reads before turning the bus around for writes
system.mem_ctrls2.rdPerTurnAround::1152-1279            1      0.00%    100.00% # Reads before turning the bus around for writes
system.mem_ctrls2.rdPerTurnAround::2816-2943            1      0.00%    100.00% # Reads before turning the bus around for writes
system.mem_ctrls2.rdPerTurnAround::total        36155                       # Reads before turning the bus around for writes
system.mem_ctrls2.wrPerTurnAround::samples        36155                       # Writes before turning the bus around for reads
system.mem_ctrls2.wrPerTurnAround::mean      5.582520                       # Writes before turning the bus around for reads
system.mem_ctrls2.wrPerTurnAround::gmean     5.392359                       # Writes before turning the bus around for reads
system.mem_ctrls2.wrPerTurnAround::stdev     1.905804                       # Writes before turning the bus around for reads
system.mem_ctrls2.wrPerTurnAround::4-7          32827     90.80%     90.80% # Writes before turning the bus around for reads
system.mem_ctrls2.wrPerTurnAround::8-11          2221      6.14%     96.94% # Writes before turning the bus around for reads
system.mem_ctrls2.wrPerTurnAround::12-15          688      1.90%     98.84% # Writes before turning the bus around for reads
system.mem_ctrls2.wrPerTurnAround::16-19          419      1.16%    100.00% # Writes before turning the bus around for reads
system.mem_ctrls2.wrPerTurnAround::total        36155                       # Writes before turning the bus around for reads
system.mem_ctrls2.totQLat                 30758153221                       # Total ticks spent queuing
system.mem_ctrls2.totMemAccLat            36855296971                       # Total ticks spent from burst creation until serviced by the DRAM
system.mem_ctrls2.totBusLat                1625905000                       # Total ticks spent in databus transfers
system.mem_ctrls2.avgQLat                    94587.79                       # Average queueing delay per DRAM burst
system.mem_ctrls2.avgBusLat                   5000.00                       # Average bus latency per DRAM burst
system.mem_ctrls2.avgMemAccLat              113337.79                       # Average memory access latency per DRAM burst
system.mem_ctrls2.avgRdBW                      159.21                       # Average DRAM read bandwidth in MiByte/s
system.mem_ctrls2.avgWrBW                       98.82                       # Average achieved write bandwidth in MiByte/s
system.mem_ctrls2.avgRdBWSys                   159.22                       # Average system read bandwidth in MiByte/s
system.mem_ctrls2.avgWrBWSys                    98.82                       # Average system write bandwidth in MiByte/s
system.mem_ctrls2.peakBW                     12800.00                       # Theoretical peak bandwidth in MiByte/s
system.mem_ctrls2.busUtil                        2.02                       # Data bus utilization in percentage
system.mem_ctrls2.busUtilRead                    1.24                       # Data bus utilization in percentage for reads
system.mem_ctrls2.busUtilWrite                   0.77                       # Data bus utilization in percentage for writes
system.mem_ctrls2.avgRdQLen                      1.24                       # Average read queue length when enqueuing
system.mem_ctrls2.avgWrQLen                      2.95                       # Average write queue length when enqueuing
system.mem_ctrls2.readRowHits                  249256                       # Number of row buffer hits during reads
system.mem_ctrls2.writeRowHits                 141380                       # Number of row buffer hits during writes
system.mem_ctrls2.readRowHitRate                76.65                       # Row buffer hit rate for reads
system.mem_ctrls2.writeRowHitRate               70.05                       # Row buffer hit rate for writes
system.mem_ctrls2.avgGap                    248023.55                       # Average gap between requests
system.mem_ctrls2.pageHitRate                   74.12                       # Row buffer hit rate, read and write combined
system.mem_ctrls2.memoryStateTime::IDLE   28403544000                       # Time in different power states
system.mem_ctrls2.memoryStateTime::REF     4364880000                       # Time in different power states
system.mem_ctrls2.memoryStateTime::PRE_PDN            0                       # Time in different power states
system.mem_ctrls2.memoryStateTime::ACT    97947414750                       # Time in different power states
system.mem_ctrls2.memoryStateTime::ACT_PDN            0                       # Time in different power states
system.mem_ctrls2.actEnergy::0              523053720                       # Energy for activate commands per rank (pJ)
system.mem_ctrls2.actEnergy::1              507948840                       # Energy for activate commands per rank (pJ)
system.mem_ctrls2.preEnergy::0              285396375                       # Energy for precharge commands per rank (pJ)
system.mem_ctrls2.preEnergy::1              277154625                       # Energy for precharge commands per rank (pJ)
system.mem_ctrls2.readEnergy::0            1276891200                       # Energy for read commands per rank (pJ)
system.mem_ctrls2.readEnergy::1            1259458200                       # Energy for read commands per rank (pJ)
system.mem_ctrls2.writeEnergy::0            656916480                       # Energy for write commands per rank (pJ)
system.mem_ctrls2.writeEnergy::1            650980800                       # Energy for write commands per rank (pJ)
system.mem_ctrls2.refreshEnergy::0         8537705280                       # Energy for refresh commands per rank (pJ)
system.mem_ctrls2.refreshEnergy::1         8537705280                       # Energy for refresh commands per rank (pJ)
system.mem_ctrls2.actBackEnergy::0        48885210675                       # Energy for active background per rank (pJ)
system.mem_ctrls2.actBackEnergy::1        47956569525                       # Energy for active background per rank (pJ)
system.mem_ctrls2.preBackEnergy::0        35547731250                       # Energy for precharge background per rank (pJ)
system.mem_ctrls2.preBackEnergy::1        36362328750                       # Energy for precharge background per rank (pJ)
system.mem_ctrls2.totalEnergy::0          95712904980                       # Total energy per rank (pJ)
system.mem_ctrls2.totalEnergy::1          95552146020                       # Total energy per rank (pJ)
system.mem_ctrls2.averagePower::0          732.221252                       # Core power per rank (mW)
system.mem_ctrls2.averagePower::1          730.991416                       # Core power per rank (mW)
system.mem_ctrls3.bytes_read::ruby.dir_cntrl3     20790976                       # Number of bytes read from this memory
system.mem_ctrls3.bytes_read::total          20790976                       # Number of bytes read from this memory
system.mem_ctrls3.bytes_written::ruby.dir_cntrl3     12916608                       # Number of bytes written to this memory
system.mem_ctrls3.bytes_written::total       12916608                       # Number of bytes written to this memory
system.mem_ctrls3.num_reads::ruby.dir_cntrl3       324859                       # Number of read requests responded to by this memory
system.mem_ctrls3.num_reads::total             324859                       # Number of read requests responded to by this memory
system.mem_ctrls3.num_writes::ruby.dir_cntrl3       201822                       # Number of write requests responded to by this memory
system.mem_ctrls3.num_writes::total            201822                       # Number of write requests responded to by this memory
system.mem_ctrls3.bw_read::ruby.dir_cntrl3    159052805                       # Total read bandwidth from this memory (bytes/s)
system.mem_ctrls3.bw_read::total            159052805                       # Total read bandwidth from this memory (bytes/s)
system.mem_ctrls3.bw_write::ruby.dir_cntrl3     98813193                       # Write bandwidth from this memory (bytes/s)
system.mem_ctrls3.bw_write::total            98813193                       # Write bandwidth from this memory (bytes/s)
system.mem_ctrls3.bw_total::ruby.dir_cntrl3    257865998                       # Total bandwidth to/from this memory (bytes/s)
system.mem_ctrls3.bw_total::total           257865998                       # Total bandwidth to/from this memory (bytes/s)
system.mem_ctrls3.readReqs                     324859                       # Number of read requests accepted
system.mem_ctrls3.writeReqs                    201822                       # Number of write requests accepted
system.mem_ctrls3.readBursts                   324859                       # Number of DRAM read bursts, including those serviced by the write queue
system.mem_ctrls3.writeBursts                  201822                       # Number of DRAM write bursts, including those merged in the write queue
system.mem_ctrls3.bytesReadDRAM              20790144                       # Total number of bytes read from DRAM
system.mem_ctrls3.bytesReadWrQ                    832                       # Total number of bytes read from write queue
system.mem_ctrls3.bytesWritten               12916480                       # Total number of bytes written to DRAM
system.mem_ctrls3.bytesReadSys               20790976                       # Total read bytes from the system interface side
system.mem_ctrls3.bytesWrittenSys            12916608                       # Total written bytes from the system interface side
system.mem_ctrls3.servicedByWrQ                    13                       # Number of DRAM read bursts serviced by the write queue
system.mem_ctrls3.mergedWrBursts                    0                       # Number of DRAM write bursts merged with an existing one
system.mem_ctrls3.neitherReadNorWriteReqs            0                       # Number of requests that are neither read nor write
system.mem_ctrls3.perBankRdBursts::0            20051                       # Per bank write bursts
system.mem_ctrls3.perBankRdBursts::1            20651                       # Per bank write bursts
system.mem_ctrls3.perBankRdBursts::2            20160                       # Per bank write bursts
system.mem_ctrls3.perBankRdBursts::3            20732                       # Per bank write bursts
system.mem_ctrls3.perBankRdBursts::4            20340                       # Per bank write bursts
system.mem_ctrls3.perBankRdBursts::5            20556                       # Per bank write bursts
system.mem_ctrls3.perBankRdBursts::6            20466                       # Per bank write bursts
system.mem_ctrls3.perBankRdBursts::7            20511                       # Per bank write bursts
system.mem_ctrls3.perBankRdBursts::8            20145                       # Per bank write bursts
system.mem_ctrls3.perBankRdBursts::9            20381                       # Per bank write bursts
system.mem_ctrls3.perBankRdBursts::10           20197                       # Per bank write bursts
system.mem_ctrls3.perBankRdBursts::11           20539                       # Per bank write bursts
system.mem_ctrls3.perBankRdBursts::12           19992                       # Per bank write bursts
system.mem_ctrls3.perBankRdBursts::13           19860                       # Per bank write bursts
system.mem_ctrls3.perBankRdBursts::14           20124                       # Per bank write bursts
system.mem_ctrls3.perBankRdBursts::15           20141                       # Per bank write bursts
system.mem_ctrls3.perBankWrBursts::0            12669                       # Per bank write bursts
system.mem_ctrls3.perBankWrBursts::1            12624                       # Per bank write bursts
system.mem_ctrls3.perBankWrBursts::2            12562                       # Per bank write bursts
system.mem_ctrls3.perBankWrBursts::3            12756                       # Per bank write bursts
system.mem_ctrls3.perBankWrBursts::4            12625                       # Per bank write bursts
system.mem_ctrls3.perBankWrBursts::5            12701                       # Per bank write bursts
system.mem_ctrls3.perBankWrBursts::6            12602                       # Per bank write bursts
system.mem_ctrls3.perBankWrBursts::7            12823                       # Per bank write bursts
system.mem_ctrls3.perBankWrBursts::8            12513                       # Per bank write bursts
system.mem_ctrls3.perBankWrBursts::9            12734                       # Per bank write bursts
system.mem_ctrls3.perBankWrBursts::10           12526                       # Per bank write bursts
system.mem_ctrls3.perBankWrBursts::11           12534                       # Per bank write bursts
system.mem_ctrls3.perBankWrBursts::12           12468                       # Per bank write bursts
system.mem_ctrls3.perBankWrBursts::13           12448                       # Per bank write bursts
system.mem_ctrls3.perBankWrBursts::14           12704                       # Per bank write bursts
system.mem_ctrls3.perBankWrBursts::15           12531                       # Per bank write bursts
system.mem_ctrls3.numRdRetry                    88151                       # Number of times read queue was full causing retry
system.mem_ctrls3.numWrRetry                     3036                       # Number of times write queue was full causing retry
system.mem_ctrls3.totGap                 130716609000                       # Total gap between requests
system.mem_ctrls3.readPktSize::0                    0                       # Read request sizes (log2)
system.mem_ctrls3.readPktSize::1                    0                       # Read request sizes (log2)
system.mem_ctrls3.readPktSize::2                    0                       # Read request sizes (log2)
system.mem_ctrls3.readPktSize::3                    0                       # Read request sizes (log2)
system.mem_ctrls3.readPktSize::4                    0                       # Read request sizes (log2)
system.mem_ctrls3.readPktSize::5                    0                       # Read request sizes (log2)
system.mem_ctrls3.readPktSize::6               324859                       # Read request sizes (log2)
system.mem_ctrls3.writePktSize::0                   0                       # Write request sizes (log2)
system.mem_ctrls3.writePktSize::1                   0                       # Write request sizes (log2)
system.mem_ctrls3.writePktSize::2                   0                       # Write request sizes (log2)
system.mem_ctrls3.writePktSize::3                   0                       # Write request sizes (log2)
system.mem_ctrls3.writePktSize::4                   0                       # Write request sizes (log2)
system.mem_ctrls3.writePktSize::5                   0                       # Write request sizes (log2)
system.mem_ctrls3.writePktSize::6              201822                       # Write request sizes (log2)
system.mem_ctrls3.rdQLenPdf::0                 171049                       # What read queue length does an incoming req see
system.mem_ctrls3.rdQLenPdf::1                   1757                       # What read queue length does an incoming req see
system.mem_ctrls3.rdQLenPdf::2                   1545                       # What read queue length does an incoming req see
system.mem_ctrls3.rdQLenPdf::3                   1746                       # What read queue length does an incoming req see
system.mem_ctrls3.rdQLenPdf::4                   1925                       # What read queue length does an incoming req see
system.mem_ctrls3.rdQLenPdf::5                   2143                       # What read queue length does an incoming req see
system.mem_ctrls3.rdQLenPdf::6                   2238                       # What read queue length does an incoming req see
system.mem_ctrls3.rdQLenPdf::7                   2451                       # What read queue length does an incoming req see
system.mem_ctrls3.rdQLenPdf::8                   2494                       # What read queue length does an incoming req see
system.mem_ctrls3.rdQLenPdf::9                   2564                       # What read queue length does an incoming req see
system.mem_ctrls3.rdQLenPdf::10                  2629                       # What read queue length does an incoming req see
system.mem_ctrls3.rdQLenPdf::11                  2678                       # What read queue length does an incoming req see
system.mem_ctrls3.rdQLenPdf::12                  2602                       # What read queue length does an incoming req see
system.mem_ctrls3.rdQLenPdf::13                  2596                       # What read queue length does an incoming req see
system.mem_ctrls3.rdQLenPdf::14                  2442                       # What read queue length does an incoming req see
system.mem_ctrls3.rdQLenPdf::15                  2412                       # What read queue length does an incoming req see
system.mem_ctrls3.rdQLenPdf::16                  2400                       # What read queue length does an incoming req see
system.mem_ctrls3.rdQLenPdf::17                  2295                       # What read queue length does an incoming req see
system.mem_ctrls3.rdQLenPdf::18                  2129                       # What read queue length does an incoming req see
system.mem_ctrls3.rdQLenPdf::19                  2066                       # What read queue length does an incoming req see
system.mem_ctrls3.rdQLenPdf::20                  2097                       # What read queue length does an incoming req see
system.mem_ctrls3.rdQLenPdf::21                  2015                       # What read queue length does an incoming req see
system.mem_ctrls3.rdQLenPdf::22                  1928                       # What read queue length does an incoming req see
system.mem_ctrls3.rdQLenPdf::23                  1963                       # What read queue length does an incoming req see
system.mem_ctrls3.rdQLenPdf::24                  1875                       # What read queue length does an incoming req see
[...]
system.ruby.L2Cache_Controller.S_I.Ack_all::total           32                      
system.ruby.L2Cache_Controller.ISS.Mem_Data |       26087      5.16%      5.16% |       15518      3.07%      8.23% |       15543      3.07%     11.30% |       15496      3.06%     14.36% |       15473      3.06%     17.42% |       15450      3.05%     20.48% |       15459      3.06%     23.53% |       15457      3.06%     26.59% |       15496      3.06%     29.65% |       15509      3.07%     32.72% |       15531      3.07%     35.79% |       15454      3.06%     38.85% |       15467      3.06%     41.90% |       15475      3.06%     44.96% |       15481      3.06%     48.02% |       15443      3.05%     51.08% |       15456      3.06%     54.13% |       15446      3.05%     57.19% |       15473      3.06%     60.25% |       15453      3.06%     63.30% |       15471      3.06%     66.36% |       15479      3.06%     69.42% |       15493      3.06%     72.48% |       15469      3.06%     75.54% |       15485      3.06%     78.60% |       15484      3.06%     81.67% |       15456      3.06%     84.72% |       15443      3.05%     87.77% |       15479      3.06%     90.83% |       15445      3.05%     93.89% |       15446      3.05%     96.94% |       15464      3.06%    100.00%
system.ruby.L2Cache_Controller.ISS.Mem_Data::total       505781                      
system.ruby.L2Cache_Controller.IS.Mem_Data |         503      3.21%      3.21% |         454      2.89%      6.10% |         438      2.79%      8.89% |         449      2.86%     11.75% |         450      2.87%     14.62% |         430      2.74%     17.36% |         472      3.01%     20.37% |         491      3.13%     23.50% |         505      3.22%     26.72% |         445      2.84%     29.56% |         487      3.10%     32.66% |         498      3.17%     35.83% |         551      3.51%     39.35% |         523      3.33%     42.68% |         510      3.25%     45.93% |         492      3.14%     49.07% |         515      3.28%     52.35% |         532      3.39%     55.74% |         529      3.37%     59.11% |         483      3.08%     62.19% |         474      3.02%     65.21% |         523      3.33%     68.54% |         477      3.04%     71.59% |         451      2.87%     74.46% |         518      3.30%     77.76% |         578      3.68%     81.45% |         522      3.33%     84.77% |         481      3.07%     87.84% |         457      2.91%     90.75% |         510      3.25%     94.00% |         487      3.10%     97.11% |         454      2.89%    100.00%
system.ruby.L2Cache_Controller.IS.Mem_Data::total        15689                      
system.ruby.L2Cache_Controller.IM.Mem_Data |       24963      3.16%      3.16% |       24665      3.12%      6.28% |       24674      3.12%      9.41% |       24679      3.12%     12.53% |       24670      3.12%     15.65% |       24674      3.12%     18.78% |       24675      3.12%     21.90% |       24666      3.12%     25.02% |       24681      3.12%     28.15% |       24680      3.12%     31.27% |       24663      3.12%     34.40% |       24687      3.13%     37.52% |       24674      3.12%     40.64% |       24671      3.12%     43.77% |       24669      3.12%     46.89% |       24662      3.12%     50.01% |       24684      3.12%     53.14% |       24680      3.12%     56.26% |       24677      3.12%     59.39% |       24675      3.12%     62.51% |       24689      3.13%     65.63% |       24698      3.13%     68.76% |       24670      3.12%     71.88% |       24674      3.12%     75.01% |       24686      3.13%     78.13% |       24680      3.12%     81.26% |       24683      3.12%     84.38% |       24670      3.12%     87.51% |       24671      3.12%     90.63% |       24672      3.12%     93.75% |       24681      3.12%     96.88% |       24668      3.12%    100.00%
system.ruby.L2Cache_Controller.IM.Mem_Data::total       789911                      
system.ruby.L2Cache_Controller.SS_MB.Exclusive_Unblock |           2      4.17%      4.17% |           4      8.33%     12.50% |           5     10.42%     22.92% |           3      6.25%     29.17% |           0      0.00%     29.17% |           0      0.00%     29.17% |           0      0.00%     29.17% |           0      0.00%     29.17% |           1      2.08%     31.25% |           1      2.08%     33.33% |           0      0.00%     33.33% |           1      2.08%     35.42% |           6     12.50%     47.92% |           0      0.00%     47.92% |           2      4.17%     52.08% |           0      0.00%     52.08% |           0      0.00%     52.08% |           0      0.00%     52.08% |           7     14.58%     66.67% |           5     10.42%     77.08% |           1      2.08%     79.17% |           0      0.00%     79.17% |           0      0.00%     79.17% |           0      0.00%     79.17% |           1      2.08%     81.25% |           1      2.08%     83.33% |           1      2.08%     85.42% |           1      2.08%     87.50% |           5     10.42%     97.92% |           0      0.00%     97.92% |           1      2.08%    100.00% |           0      0.00%    100.00%
system.ruby.L2Cache_Controller.SS_MB.Exclusive_Unblock::total           48                      
system.ruby.L2Cache_Controller.MT_MB.L1_PUTX |           7    100.00%    100.00% |           0      0.00%    100.00% |           0      0.00%    100.00% |           0      0.00%    100.00% |           0      0.00%    100.00% |           0      0.00%    100.00% |           0      0.00%    100.00% |           0      0.00%    100.00% |           0      0.00%    100.00% |           0      0.00%    100.00% |           0      0.00%    100.00% |           0      0.00%    100.00% |           0      0.00%    100.00% |           0      0.00%    100.00% |           0      0.00%    100.00% |           0      0.00%    100.00% |           0      0.00%    100.00% |           0      0.00%    100.00% |           0      0.00%    100.00% |           0      0.00%    100.00% |           0      0.00%    100.00% |           0      0.00%    100.00% |           0      0.00%    100.00% |           0      0.00%    100.00% |           0      0.00%    100.00% |           0      0.00%    100.00% |           0      0.00%    100.00% |           0      0.00%    100.00% |           0      0.00%    100.00% |           0      0.00%    100.00% |           0      0.00%    100.00% |           0      0.00%    100.00%
system.ruby.L2Cache_Controller.MT_MB.L1_PUTX::total            7                      
system.ruby.L2Cache_Controller.MT_MB.Exclusive_Unblock |      171921      9.58%      9.58% |       54322      3.03%     12.60% |       49315      2.75%     15.35% |       53026      2.95%     18.30% |       53545      2.98%     21.29% |       49551      2.76%     24.05% |       46004      2.56%     26.61% |       46017      2.56%     29.17% |       51586      2.87%     32.04% |       49856      2.78%     34.82% |       54105      3.01%     37.84% |       51068      2.84%     40.68% |       48322      2.69%     43.37% |       46952      2.62%     45.99% |       47918      2.67%     48.66% |       46650      2.60%     51.25% |       50603      2.82%     54.07% |       48405      2.70%     56.77% |       49937      2.78%     59.55% |       54052      3.01%     62.56% |       54563      3.04%     65.60% |       63425      3.53%     69.13% |       58045      3.23%     72.37% |       53287      2.97%     75.34% |       53540      2.98%     78.32% |       51489      2.87%     81.19% |       52542      2.93%     84.11% |       52345      2.92%     87.03% |       55542      3.09%     90.12% |       55204      3.07%     93.20% |       63507      3.54%     96.73% |       58629      3.27%    100.00%
system.ruby.L2Cache_Controller.MT_MB.Exclusive_Unblock::total      1795273                      
system.ruby.L2Cache_Controller.MT_IIB.WB_Data |           0      0.00%      0.00% |           0      0.00%      0.00% |           1      7.14%      7.14% |           1      7.14%     14.29% |           1      7.14%     21.43% |           0      0.00%     21.43% |           1      7.14%     28.57% |           0      0.00%     28.57% |           1      7.14%     35.71% |           1      7.14%     42.86% |           1      7.14%     50.00% |           1      7.14%     57.14% |           1      7.14%     64.29% |           0      0.00%     64.29% |           1      7.14%     71.43% |           1      7.14%     78.57% |           1      7.14%     85.71% |           1      7.14%     92.86% |           1      7.14%    100.00% |           0      0.00%    100.00% |           0      0.00%    100.00% |           0      0.00%    100.00% |           0      0.00%    100.00% |           0      0.00%    100.00% |           0      0.00%    100.00% |           0      0.00%    100.00% |           0      0.00%    100.00% |           0      0.00%    100.00% |           0      0.00%    100.00% |           0      0.00%    100.00% |           0      0.00%    100.00% |           0      0.00%    100.00%
system.ruby.L2Cache_Controller.MT_IIB.WB_Data::total           14                      
system.ruby.L2Cache_Controller.MT_IIB.WB_Data_clean |           3    100.00%    100.00% |           0      0.00%    100.00% |           0      0.00%    100.00% |           0      0.00%    100.00% |           0      0.00%    100.00% |           0      0.00%    100.00% |           0      0.00%    100.00% |           0      0.00%    100.00% |           0      0.00%    100.00% |           0      0.00%    100.00% |           0      0.00%    100.00% |           0      0.00%    100.00% |           0      0.00%    100.00% |           0      0.00%    100.00% |           0      0.00%    100.00% |           0      0.00%    100.00% |           0      0.00%    100.00% |           0      0.00%    100.00% |           0      0.00%    100.00% |           0      0.00%    100.00% |           0      0.00%    100.00% |           0      0.00%    100.00% |           0      0.00%    100.00% |           0      0.00%    100.00% |           0      0.00%    100.00% |           0      0.00%    100.00% |           0      0.00%    100.00% |           0      0.00%    100.00% |           0      0.00%    100.00% |           0      0.00%    100.00% |           0      0.00%    100.00% |           0      0.00%    100.00%
system.ruby.L2Cache_Controller.MT_IIB.WB_Data_clean::total            3                      
system.ruby.L2Cache_Controller.MT_IIB.Unblock |           0      0.00%      0.00% |           0      0.00%      0.00% |           0      0.00%      0.00% |           0      0.00%      0.00% |           0      0.00%      0.00% |           0      0.00%      0.00% |           0      0.00%      0.00% |           1     50.00%     50.00% |           0      0.00%     50.00% |           0      0.00%     50.00% |           0      0.00%     50.00% |           0      0.00%     50.00% |           0      0.00%     50.00% |           1     50.00%    100.00% |           0      0.00%    100.00% |           0      0.00%    100.00% |           0      0.00%    100.00% |           0      0.00%    100.00% |           0      0.00%    100.00% |           0      0.00%    100.00% |           0      0.00%    100.00% |           0      0.00%    100.00% |           0      0.00%    100.00% |           0      0.00%    100.00% |           0      0.00%    100.00% |           0      0.00%    100.00% |           0      0.00%    100.00% |           0      0.00%    100.00% |           0      0.00%    100.00% |           0      0.00%    100.00% |           0      0.00%    100.00% |           0      0.00%    100.00%
system.ruby.L2Cache_Controller.MT_IIB.Unblock::total            2                      
system.ruby.L2Cache_Controller.MT_IB.WB_Data |           0      0.00%      0.00% |           0      0.00%      0.00% |           0      0.00%      0.00% |           0      0.00%      0.00% |           0      0.00%      0.00% |           0      0.00%      0.00% |           0      0.00%      0.00% |           1     50.00%     50.00% |           0      0.00%     50.00% |           0      0.00%     50.00% |           0      0.00%     50.00% |           0      0.00%     50.00% |           0      0.00%     50.00% |           1     50.00%    100.00% |           0      0.00%    100.00% |           0      0.00%    100.00% |           0      0.00%    100.00% |           0      0.00%    100.00% |           0      0.00%    100.00% |           0      0.00%    100.00% |           0      0.00%    100.00% |           0      0.00%    100.00% |           0      0.00%    100.00% |           0      0.00%    100.00% |           0      0.00%    100.00% |           0      0.00%    100.00% |           0      0.00%    100.00% |           0      0.00%    100.00% |           0      0.00%    100.00% |           0      0.00%    100.00% |           0      0.00%    100.00% |           0      0.00%    100.00%
system.ruby.L2Cache_Controller.MT_IB.WB_Data::total            2                      
system.ruby.L2Cache_Controller.MT_SB.Unblock |           3     17.65%     17.65% |           0      0.00%     17.65% |           1      5.88%     23.53% |           1      5.88%     29.41% |           1      5.88%     35.29% |           0      0.00%     35.29% |           1      5.88%     41.18% |           0      0.00%     41.18% |           1      5.88%     47.06% |           1      5.88%     52.94% |           1      5.88%     58.82% |           1      5.88%     64.71% |           1      5.88%     70.59% |           0      0.00%     70.59% |           1      5.88%     76.47% |           1      5.88%     82.35% |           1      5.88%     88.24% |           1      5.88%     94.12% |           1      5.88%    100.00% |           0      0.00%    100.00% |           0      0.00%    100.00% |           0      0.00%    100.00% |           0      0.00%    100.00% |           0      0.00%    100.00% |           0      0.00%    100.00% |           0      0.00%    100.00% |           0      0.00%    100.00% |           0      0.00%    100.00% |           0      0.00%    100.00% |           0      0.00%    100.00% |           0      0.00%    100.00% |           0      0.00%    100.00%
system.ruby.L2Cache_Controller.MT_SB.Unblock::total           17                      
system.ruby.SimicsNetworkPortInterface_Controller.MessageSend |       39712     12.18%     12.18% |      162959     50.00%     62.18% |        8054      2.47%     64.66% |        8494      2.61%     67.26% |        7995      2.45%     69.72% |        8567      2.63%     72.34% |        8002      2.46%     74.80% |        8446      2.59%     77.39% |        6896      2.12%     79.51% |        7557      2.32%     81.82% |        7041      2.16%     83.99% |        7577      2.32%     86.31% |        7882      2.42%     88.73% |        7458      2.29%     91.02% |        6864      2.11%     93.12% |        7120      2.18%     95.31% |        7512      2.30%     97.61% |        7782      2.39%    100.00% |           0      0.00%    100.00% |           0      0.00%    100.00% |           0      0.00%    100.00% |           0      0.00%    100.00% |           0      0.00%    100.00% |           0      0.00%    100.00% |           0      0.00%    100.00% |           0      0.00%    100.00% |           0      0.00%    100.00% |           0      0.00%    100.00% |           0      0.00%    100.00% |           0      0.00%    100.00% |           0      0.00%    100.00% |           0      0.00%    100.00%
system.ruby.SimicsNetworkPortInterface_Controller.MessageSend::total       325918                      
system.ruby.SimicsNetworkPortInterface_Controller.MessageRecv |       39712     12.18%     12.18% |      162959     50.00%     62.18% |        8054      2.47%     64.66% |        8494      2.61%     67.26% |        7995      2.45%     69.72% |        8567      2.63%     72.34% |        8002      2.46%     74.80% |        8446      2.59%     77.39% |        6896      2.12%     79.51% |        7557      2.32%     81.82% |        7041      2.16%     83.99% |        7577      2.32%     86.31% |        7882      2.42%     88.73% |        7458      2.29%     91.02% |        6864      2.11%     93.12% |        7120      2.18%     95.31% |        7512      2.30%     97.61% |        7782      2.39%    100.00% |           0      0.00%    100.00% |           0      0.00%    100.00% |           0      0.00%    100.00% |           0      0.00%    100.00% |           0      0.00%    100.00% |           0      0.00%    100.00% |           0      0.00%    100.00% |           0      0.00%    100.00% |           0      0.00%    100.00% |           0      0.00%    100.00% |           0      0.00%    100.00% |           0      0.00%    100.00% |           0      0.00%    100.00% |           0      0.00%    100.00%
system.ruby.SimicsNetworkPortInterface_Controller.MessageRecv::total       325918                      
system.ruby.SimicsNetworkPortInterface_Controller.A.MessageSend |       39712     12.18%     12.18% |      162959     50.00%     62.18% |        8054      2.47%     64.66% |        8494      2.61%     67.26% |        7995      2.45%     69.72% |        8567      2.63%     72.34% |        8002      2.46%     74.80% |        8446      2.59%     77.39% |        6896      2.12%     79.51% |        7557      2.32%     81.82% |        7041      2.16%     83.99% |        7577      2.32%     86.31% |        7882      2.42%     88.73% |        7458      2.29%     91.02% |        6864      2.11%     93.12% |        7120      2.18%     95.31% |        7512      2.30%     97.61% |        7782      2.39%    100.00% |           0      0.00%    100.00% |           0      0.00%    100.00% |           0      0.00%    100.00% |           0      0.00%    100.00% |           0      0.00%    100.00% |           0      0.00%    100.00% |           0      0.00%    100.00% |           0      0.00%    100.00% |           0      0.00%    100.00% |           0      0.00%    100.00% |           0      0.00%    100.00% |           0      0.00%    100.00% |           0      0.00%    100.00% |           0      0.00%    100.00%
system.ruby.SimicsNetworkPortInterface_Controller.A.MessageSend::total       325918                      
system.ruby.SimicsNetworkPortInterface_Controller.A.MessageRecv |       39712     12.18%     12.18% |      162959     50.00%     62.18% |        8054      2.47%     64.66% |        8494      2.61%     67.26% |        7995      2.45%     69.72% |        8567      2.63%     72.34% |        8002      2.46%     74.80% |        8446      2.59%     77.39% |        6896      2.12%     79.51% |        7557      2.32%     81.82% |        7041      2.16%     83.99% |        7577      2.32%     86.31% |        7882      2.42%     88.73% |        7458      2.29%     91.02% |        6864      2.11%     93.12% |        7120      2.18%     95.31% |        7512      2.30%     97.61% |        7782      2.39%    100.00% |           0      0.00%    100.00% |           0      0.00%    100.00% |           0      0.00%    100.00% |           0      0.00%    100.00% |           0      0.00%    100.00% |           0      0.00%    100.00% |           0      0.00%    100.00% |           0      0.00%    100.00% |           0      0.00%    100.00% |           0      0.00%    100.00% |           0      0.00%    100.00% |           0      0.00%    100.00% |           0      0.00%    100.00% |           0      0.00%    100.00%
system.ruby.SimicsNetworkPortInterface_Controller.A.MessageRecv::total       325918                      
system.switch_cpus.kern.inst.arm                    0                       # number of arm instructions executed
system.switch_cpus.kern.inst.quiesce                0                       # number of quiesce instructions executed

---------- End Simulation Statistics   ----------
