
---------- Begin Simulation Statistics ----------
sim_seconds                                  0.130693                       # Number of seconds simulated
sim_ticks                                130693229500                       # Number of ticks simulated
final_tick                               5306861308000                       # Number of ticks from beginning of simulation (restored from checkpoints and never reset)
sim_freq                                 1000000000000                       # Frequency of simulated ticks
host_inst_rate                                  16074                       # Simulator instruction rate (inst/s)
host_op_rate                                    27750                       # Simulator op (including micro ops) rate (op/s)
host_tick_rate                               49187509                       # Simulator tick rate (ticks/s)
host_mem_usage                                3697120                       # Number of bytes of host memory used
host_seconds                                  2657.04                       # Real time elapsed on the host
sim_insts                                    42708462                       # Number of instructions simulated
sim_ops                                      73733828                       # Number of ops (including micro ops) simulated
system.voltage_domain.voltage                       1                       # Voltage in Volts
system.clk_domain.clock                           500                       # Clock period in ticks
system.mem_ctrls0.bytes_read::ruby.dir_cntrl0     21451904                       # Number of bytes read from this memory
system.mem_ctrls0.bytes_read::total          21451904                       # Number of bytes read from this memory
system.mem_ctrls0.bytes_written::ruby.dir_cntrl0     13545152                       # Number of bytes written to this memory
system.mem_ctrls0.bytes_written::total       13545152                       # Number of bytes written to this memory
system.mem_ctrls0.num_reads::ruby.dir_cntrl0       335186                       # Number of read requests responded to by this memory
system.mem_ctrls0.num_reads::total             335186                       # Number of read requests responded to by this memory
system.mem_ctrls0.num_writes::ruby.dir_cntrl0       211643                       # Number of write requests responded to by this memory
system.mem_ctrls0.num_writes::total            211643                       # Number of write requests responded to by this memory
system.mem_ctrls0.bw_read::ruby.dir_cntrl0    164139367                       # Total read bandwidth from this memory (bytes/s)
system.mem_ctrls0.bw_read::total            164139367                       # Total read bandwidth from this memory (bytes/s)
system.mem_ctrls0.bw_write::ruby.dir_cntrl0    103640809                       # Write bandwidth from this memory (bytes/s)
system.mem_ctrls0.bw_write::total           103640809                       # Write bandwidth from this memory (bytes/s)
system.mem_ctrls0.bw_total::ruby.dir_cntrl0    267780176                       # Total bandwidth to/from this memory (bytes/s)
system.mem_ctrls0.bw_total::total           267780176                       # Total bandwidth to/from this memory (bytes/s)
system.mem_ctrls0.readReqs                     335186                       # Number of read requests accepted
system.mem_ctrls0.writeReqs                    211643                       # Number of write requests accepted
system.mem_ctrls0.readBursts                   335186                       # Number of DRAM read bursts, including those serviced by the write queue
system.mem_ctrls0.writeBursts                  211643                       # Number of DRAM write bursts, including those merged in the write queue
system.mem_ctrls0.bytesReadDRAM              21450880                       # Total number of bytes read from DRAM
system.mem_ctrls0.bytesReadWrQ                   1024                       # Total number of bytes read from write queue
system.mem_ctrls0.bytesWritten               13544896                       # Total number of bytes written to DRAM
system.mem_ctrls0.bytesReadSys               21451904                       # Total read bytes from the system interface side
system.mem_ctrls0.bytesWrittenSys            13545152                       # Total written bytes from the system interface side
system.mem_ctrls0.servicedByWrQ                    16                       # Number of DRAM read bursts serviced by the write queue
system.mem_ctrls0.mergedWrBursts                    0                       # Number of DRAM write bursts merged with an existing one
system.mem_ctrls0.neitherReadNorWriteReqs            0                       # Number of requests that are neither read nor write
system.mem_ctrls0.perBankRdBursts::0            20691                       # Per bank write bursts
system.mem_ctrls0.perBankRdBursts::1            21311                       # Per bank write bursts
system.mem_ctrls0.perBankRdBursts::2            20881                       # Per bank write bursts
system.mem_ctrls0.perBankRdBursts::3            21349                       # Per bank write bursts
system.mem_ctrls0.perBankRdBursts::4            20959                       # Per bank write bursts
system.mem_ctrls0.perBankRdBursts::5            21178                       # Per bank write bursts
system.mem_ctrls0.perBankRdBursts::6            21083                       # Per bank write bursts
system.mem_ctrls0.perBankRdBursts::7            21061                       # Per bank write bursts
system.mem_ctrls0.perBankRdBursts::8            20846                       # Per bank write bursts
system.mem_ctrls0.perBankRdBursts::9            21037                       # Per bank write bursts
system.mem_ctrls0.perBankRdBursts::10           20799                       # Per bank write bursts
system.mem_ctrls0.perBankRdBursts::11           21185                       # Per bank write bursts
system.mem_ctrls0.perBankRdBursts::12           20661                       # Per bank write bursts
system.mem_ctrls0.perBankRdBursts::13           20568                       # Per bank write bursts
system.mem_ctrls0.perBankRdBursts::14           20785                       # Per bank write bursts
system.mem_ctrls0.perBankRdBursts::15           20776                       # Per bank write bursts
system.mem_ctrls0.perBankWrBursts::0            13283                       # Per bank write bursts
system.mem_ctrls0.perBankWrBursts::1            13239                       # Per bank write bursts
system.mem_ctrls0.perBankWrBursts::2            13156                       # Per bank write bursts
system.mem_ctrls0.perBankWrBursts::3            13391                       # Per bank write bursts
system.mem_ctrls0.perBankWrBursts::4            13202                       # Per bank write bursts
system.mem_ctrls0.perBankWrBursts::5            13318                       # Per bank write bursts
system.mem_ctrls0.perBankWrBursts::6            13249                       # Per bank write bursts
system.mem_ctrls0.perBankWrBursts::7            13417                       # Per bank write bursts
system.mem_ctrls0.perBankWrBursts::8            13143                       # Per bank write bursts
system.mem_ctrls0.perBankWrBursts::9            13356                       # Per bank write bursts
system.mem_ctrls0.perBankWrBursts::10           13131                       # Per bank write bursts
system.mem_ctrls0.perBankWrBursts::11           13080                       # Per bank write bursts
system.mem_ctrls0.perBankWrBursts::12           13065                       # Per bank write bursts
system.mem_ctrls0.perBankWrBursts::13           13072                       # Per bank write bursts
system.mem_ctrls0.perBankWrBursts::14           13361                       # Per bank write bursts
system.mem_ctrls0.perBankWrBursts::15           13176                       # Per bank write bursts
system.mem_ctrls0.numRdRetry                    98218                       # Number of times read queue was full causing retry
system.mem_ctrls0.numWrRetry                     3201                       # Number of times write queue was full causing retry
system.mem_ctrls0.totGap                 130692646500                       # Total gap between requests
system.mem_ctrls0.readPktSize::0                    0                       # Read request sizes (log2)
system.mem_ctrls0.readPktSize::1                    0                       # Read request sizes (log2)
system.mem_ctrls0.readPktSize::2                    0                       # Read request sizes (log2)
system.mem_ctrls0.readPktSize::3                    0                       # Read request sizes (log2)
system.mem_ctrls0.readPktSize::4                    0                       # Read request sizes (log2)
system.mem_ctrls0.readPktSize::5                    0                       # Read request sizes (log2)
system.mem_ctrls0.readPktSize::6               335186                       # Read request sizes (log2)
system.mem_ctrls0.writePktSize::0                   0                       # Write request sizes (log2)
system.mem_ctrls0.writePktSize::1                   0                       # Write request sizes (log2)
system.mem_ctrls0.writePktSize::2                   0                       # Write request sizes (log2)
system.mem_ctrls0.writePktSize::3                   0                       # Write request sizes (log2)
system.mem_ctrls0.writePktSize::4                   0                       # Write request sizes (log2)
system.mem_ctrls0.writePktSize::5                   0                       # Write request sizes (log2)
system.mem_ctrls0.writePktSize::6              211643                       # Write request sizes (log2)
system.mem_ctrls0.rdQLenPdf::0                 175780                       # What read queue length does an incoming req see
system.mem_ctrls0.rdQLenPdf::1                   5165                       # What read queue length does an incoming req see
system.mem_ctrls0.rdQLenPdf::2                   2416                       # What read queue length does an incoming req see
system.mem_ctrls0.rdQLenPdf::3                   1049                       # What read queue length does an incoming req see
system.mem_ctrls0.rdQLenPdf::4                   1148                       # What read queue length does an incoming req see
system.mem_ctrls0.rdQLenPdf::5                   1280                       # What read queue length does an incoming req see
system.mem_ctrls0.rdQLenPdf::6                   1417                       # What read queue length does an incoming req see
system.mem_ctrls0.rdQLenPdf::7                   1472                       # What read queue length does an incoming req see
system.mem_ctrls0.rdQLenPdf::8                   1578                       # What read queue length does an incoming req see
system.mem_ctrls0.rdQLenPdf::9                   1669                       # What read queue length does an incoming req see
system.mem_ctrls0.rdQLenPdf::10                  1758                       # What read queue length does an incoming req see
system.mem_ctrls0.rdQLenPdf::11                  1797                       # What read queue length does an incoming req see
system.mem_ctrls0.rdQLenPdf::12                  1865                       # What read queue length does an incoming req see
system.mem_ctrls0.rdQLenPdf::13                  1952                       # What read queue length does an incoming req see
system.mem_ctrls0.rdQLenPdf::14                  1860                       # What read queue length does an incoming req see
system.mem_ctrls0.rdQLenPdf::15                  1988                       # What read queue length does an incoming req see
system.mem_ctrls0.rdQLenPdf::16                  1986                       # What read queue length does an incoming req see
system.mem_ctrls0.rdQLenPdf::17                  1916                       # What read queue length does an incoming req see
system.mem_ctrls0.rdQLenPdf::18                  1851                       # What read queue length does an incoming req see
system.mem_ctrls0.rdQLenPdf::19                  1936                       # What read queue length does an incoming req see
system.mem_ctrls0.rdQLenPdf::20                  1904                       # What read queue length does an incoming req see
system.mem_ctrls0.rdQLenPdf::21                  1899                       # What read queue length does an incoming req see
system.mem_ctrls0.rdQLenPdf::22                  1913                       # What read queue length does an incoming req see
system.mem_ctrls0.rdQLenPdf::23                  1902                       # What read queue length does an incoming req see
system.mem_ctrls0.rdQLenPdf::24                  2031                       # What read queue length does an incoming req see
system.mem_ctrls0.rdQLenPdf::25                  2074                       # What read queue length does an incoming req see
system.mem_ctrls0.rdQLenPdf::26                  2021                       # What read queue length does an incoming req see
system.mem_ctrls0.rdQLenPdf::27                  2016                       # What read queue length does an incoming req see
system.mem_ctrls0.rdQLenPdf::28                  2150                       # What read queue length does an incoming req see
system.mem_ctrls0.rdQLenPdf::29                  2145                       # What read queue length does an incoming req see
system.mem_ctrls0.rdQLenPdf::30                  2267                       # What read queue length does an incoming req see
system.mem_ctrls0.rdQLenPdf::31                100965                       # What read queue length does an incoming req see
system.mem_ctrls0.wrQLenPdf::0                  37552                       # What write queue length does an incoming req see
system.mem_ctrls0.wrQLenPdf::1                  38471                       # What write queue length does an incoming req see
system.mem_ctrls0.wrQLenPdf::2                  39076                       # What write queue length does an incoming req see
system.mem_ctrls0.wrQLenPdf::3                  39350                       # What write queue length does an incoming req see
system.mem_ctrls0.wrQLenPdf::4                  39158                       # What write queue length does an incoming req see
system.mem_ctrls0.wrQLenPdf::5                   5456                       # What write queue length does an incoming req see
system.mem_ctrls0.wrQLenPdf::6                   5882                       # What write queue length does an incoming req see
system.mem_ctrls0.wrQLenPdf::7                   6698                       # What write queue length does an incoming req see
system.mem_ctrls0.bytesPerActivate::samples       152891                       # Bytes accessed per row activation
system.mem_ctrls0.bytesPerActivate::mean   228.893212                       # Bytes accessed per row activation
system.mem_ctrls0.bytesPerActivate::gmean   167.910973                       # Bytes accessed per row activation
system.mem_ctrls0.bytesPerActivate::stdev   189.861667                       # Bytes accessed per row activation
system.mem_ctrls0.bytesPerActivate::0-127        51859     33.92%     33.92% # Bytes accessed per row activation
system.mem_ctrls0.bytesPerActivate::128-255        30652     20.05%     53.97% # Bytes accessed per row activation
system.mem_ctrls0.bytesPerActivate::256-383        53216     34.81%     88.77% # Bytes accessed per row activation
system.mem_ctrls0.bytesPerActivate::384-511         5934      3.88%     92.65% # Bytes accessed per row activation
system.mem_ctrls0.bytesPerActivate::512-639         4032      2.64%     95.29% # Bytes accessed per row activation
system.mem_ctrls0.bytesPerActivate::640-767         2282      1.49%     96.78% # Bytes accessed per row activation
system.mem_ctrls0.bytesPerActivate::768-895         1357      0.89%     97.67% # Bytes accessed per row activation
system.mem_ctrls0.bytesPerActivate::896-1023         1063      0.70%     98.37% # Bytes accessed per row activation
system.mem_ctrls0.bytesPerActivate::1024-1151         2496      1.63%    100.00% # Bytes accessed per row activation
system.mem_ctrls0.bytesPerActivate::total       152891                       # Bytes accessed per row activation
system.mem_ctrls0.rdPerTurnAround::samples        37843                       # Reads before turning the bus around for writes
system.mem_ctrls0.rdPerTurnAround::mean      8.856697                       # Reads before turning the bus around for writes
system.mem_ctrls0.rdPerTurnAround::stdev    23.919989                       # Reads before turning the bus around for writes
system.mem_ctrls0.rdPerTurnAround::0-127        37822     99.94%     99.94% # Reads before turning the bus around for writes
system.mem_ctrls0.rdPerTurnAround::128-255           20      0.05%    100.00% # Reads before turning the bus around for writes
system.mem_ctrls0.rdPerTurnAround::3968-4095            1      0.00%    100.00% # Reads before turning the bus around for writes
system.mem_ctrls0.rdPerTurnAround::total        37843                       # Reads before turning the bus around for writes
system.mem_ctrls0.wrPerTurnAround::samples        37843                       # Writes before turning the bus around for reads
system.mem_ctrls0.wrPerTurnAround::mean      5.592553                       # Writes before turning the bus around for reads
system.mem_ctrls0.wrPerTurnAround::gmean     5.405174                       # Writes before turning the bus around for reads
system.mem_ctrls0.wrPerTurnAround::stdev     1.892272                       # Writes before turning the bus around for reads
system.mem_ctrls0.wrPerTurnAround::4-7          34463     91.07%     91.07% # Writes before turning the bus around for reads
system.mem_ctrls0.wrPerTurnAround::8-11          2264      5.98%     97.05% # Writes before turning the bus around for reads
system.mem_ctrls0.wrPerTurnAround::12-15          659      1.74%     98.79% # Writes before turning the bus around for reads
system.mem_ctrls0.wrPerTurnAround::16-19          457      1.21%    100.00% # Writes before turning the bus around for reads
system.mem_ctrls0.wrPerTurnAround::total        37843                       # Writes before turning the bus around for reads
system.mem_ctrls0.totQLat                 33487689449                       # Total ticks spent queuing
system.mem_ctrls0.totMemAccLat            39772126949                       # Total ticks spent from burst creation until serviced by the DRAM
system.mem_ctrls0.totBusLat                1675850000                       # Total ticks spent in databus transfers
system.mem_ctrls0.avgQLat                    99912.55                       # Average queueing delay per DRAM burst
system.mem_ctrls0.avgBusLat                   5000.00                       # Average bus latency per DRAM burst
system.mem_ctrls0.avgMemAccLat              118662.55                       # Average memory access latency per DRAM burst
system.mem_ctrls0.avgRdBW                      164.13                       # Average DRAM read bandwidth in MiByte/s
system.mem_ctrls0.avgWrBW                      103.64                       # Average achieved write bandwidth in MiByte/s
system.mem_ctrls0.avgRdBWSys                   164.14                       # Average system read bandwidth in MiByte/s
system.mem_ctrls0.avgWrBWSys                   103.64                       # Average system write bandwidth in MiByte/s
system.mem_ctrls0.peakBW                     12800.00                       # Theoretical peak bandwidth in MiByte/s
system.mem_ctrls0.busUtil                        2.09                       # Data bus utilization in percentage
system.mem_ctrls0.busUtilRead                    1.28                       # Data bus utilization in percentage for reads
system.mem_ctrls0.busUtilWrite                   0.81                       # Data bus utilization in percentage for writes
system.mem_ctrls0.avgRdQLen                      1.27                       # Average read queue length when enqueuing
system.mem_ctrls0.avgWrQLen                      2.96                       # Average write queue length when enqueuing
system.mem_ctrls0.readRowHits                  255113                       # Number of row buffer hits during reads
system.mem_ctrls0.writeRowHits                 138804                       # Number of row buffer hits during writes
system.mem_ctrls0.readRowHitRate                76.11                       # Row buffer hit rate for reads
system.mem_ctrls0.writeRowHitRate               65.58                       # Row buffer hit rate for writes
system.mem_ctrls0.avgGap                    239000.94                       # Average gap between requests
system.mem_ctrls0.pageHitRate                   72.04                       # Row buffer hit rate, read and write combined
system.mem_ctrls0.memoryStateTime::IDLE   28041859000                       # Time in different power states
system.mem_ctrls0.memoryStateTime::REF     4364100000                       # Time in different power states
system.mem_ctrls0.memoryStateTime::PRE_PDN            0                       # Time in different power states
system.mem_ctrls0.memoryStateTime::ACT    98286934500                       # Time in different power states
system.mem_ctrls0.memoryStateTime::ACT_PDN            0                       # Time in different power states
system.mem_ctrls0.actEnergy::0              584902080                       # Energy for activate commands per rank (pJ)
system.mem_ctrls0.actEnergy::1              570953880                       # Energy for activate commands per rank (pJ)
system.mem_ctrls0.preEnergy::0              319143000                       # Energy for precharge commands per rank (pJ)
system.mem_ctrls0.preEnergy::1              311532375                       # Energy for precharge commands per rank (pJ)
system.mem_ctrls0.readEnergy::0            1314401400                       # Energy for read commands per rank (pJ)
system.mem_ctrls0.readEnergy::1            1299916800                       # Energy for read commands per rank (pJ)
system.mem_ctrls0.writeEnergy::0            688532400                       # Energy for write commands per rank (pJ)
system.mem_ctrls0.writeEnergy::1            682888320                       # Energy for write commands per rank (pJ)
system.mem_ctrls0.refreshEnergy::0         8536179600                       # Energy for refresh commands per rank (pJ)
system.mem_ctrls0.refreshEnergy::1         8536179600                       # Energy for refresh commands per rank (pJ)
system.mem_ctrls0.actBackEnergy::0        49697756505                       # Energy for active background per rank (pJ)
system.mem_ctrls0.actBackEnergy::1        49265659170                       # Energy for active background per rank (pJ)
system.mem_ctrls0.preBackEnergy::0        34820956500                       # Energy for precharge background per rank (pJ)
system.mem_ctrls0.preBackEnergy::1        35199989250                       # Energy for precharge background per rank (pJ)
system.mem_ctrls0.totalEnergy::0          95961871485                       # Total energy per rank (pJ)
system.mem_ctrls0.totalEnergy::1          95867119395                       # Total energy per rank (pJ)
system.mem_ctrls0.averagePower::0          734.257102                       # Core power per rank (mW)
system.mem_ctrls0.averagePower::1          733.532101                       # Core power per rank (mW)
system.mem_ctrls1.bytes_read::ruby.dir_cntrl1     20799296                       # Number of bytes read from this memory
system.mem_ctrls1.bytes_read::total          20799296                       # Number of bytes read from this memory
system.mem_ctrls1.bytes_written::ruby.dir_cntrl1     12917568                       # Number of bytes written to this memory
system.mem_ctrls1.bytes_written::total       12917568                       # Number of bytes written to this memory
system.mem_ctrls1.num_reads::ruby.dir_cntrl1       324989                       # Number of read requests responded to by this memory
system.mem_ctrls1.num_reads::total             324989                       # Number of read requests responded to by this memory
system.mem_ctrls1.num_writes::ruby.dir_cntrl1       201837                       # Number of write requests responded to by this memory
system.mem_ctrls1.num_writes::total            201837                       # Number of write requests responded to by this memory
system.mem_ctrls1.bw_read::ruby.dir_cntrl1    159145933                       # Total read bandwidth from this memory (bytes/s)
system.mem_ctrls1.bw_read::total            159145933                       # Total read bandwidth from this memory (bytes/s)
system.mem_ctrls1.bw_write::ruby.dir_cntrl1     98838846                       # Write bandwidth from this memory (bytes/s)
system.mem_ctrls1.bw_write::total            98838846                       # Write bandwidth from this memory (bytes/s)
system.mem_ctrls1.bw_total::ruby.dir_cntrl1    257984780                       # Total bandwidth to/from this memory (bytes/s)
system.mem_ctrls1.bw_total::total           257984780                       # Total bandwidth to/from this memory (bytes/s)
system.mem_ctrls1.readReqs                     324989                       # Number of read requests accepted
system.mem_ctrls1.writeReqs                    201837                       # Number of write requests accepted
system.mem_ctrls1.readBursts                   324989                       # Number of DRAM read bursts, including those serviced by the write queue
system.mem_ctrls1.writeBursts                  201837                       # Number of DRAM write bursts, including those merged in the write queue
system.mem_ctrls1.bytesReadDRAM              20798208                       # Total number of bytes read from DRAM
system.mem_ctrls1.bytesReadWrQ                   1088                       # Total number of bytes read from write queue
system.mem_ctrls1.bytesWritten               12917568                       # Total number of bytes written to DRAM
system.mem_ctrls1.bytesReadSys               20799296                       # Total read bytes from the system interface side
system.mem_ctrls1.bytesWrittenSys            12917568                       # Total written bytes from the system interface side
system.mem_ctrls1.servicedByWrQ                    17                       # Number of DRAM read bursts serviced by the write queue
system.mem_ctrls1.mergedWrBursts                    0                       # Number of DRAM write bursts merged with an existing one
system.mem_ctrls1.neitherReadNorWriteReqs            0                       # Number of requests that are neither read nor write
system.mem_ctrls1.perBankRdBursts::0            20059                       # Per bank write bursts
system.mem_ctrls1.perBankRdBursts::1            20698                       # Per bank write bursts
system.mem_ctrls1.perBankRdBursts::2            20233                       # Per bank write bursts
system.mem_ctrls1.perBankRdBursts::3            20687                       # Per bank write bursts
system.mem_ctrls1.perBankRdBursts::4            20377                       # Per bank write bursts
system.mem_ctrls1.perBankRdBursts::5            20545                       # Per bank write bursts
system.mem_ctrls1.perBankRdBursts::6            20446                       # Per bank write bursts
system.mem_ctrls1.perBankRdBursts::7            20512                       # Per bank write bursts
system.mem_ctrls1.perBankRdBursts::8            20188                       # Per bank write bursts
system.mem_ctrls1.perBankRdBursts::9            20382                       # Per bank write bursts
system.mem_ctrls1.perBankRdBursts::10           20148                       # Per bank write bursts
system.mem_ctrls1.perBankRdBursts::11           20570                       # Per bank write bursts
system.mem_ctrls1.perBankRdBursts::12           20016                       # Per bank write bursts
system.mem_ctrls1.perBankRdBursts::13           19894                       # Per bank write bursts
system.mem_ctrls1.perBankRdBursts::14           20084                       # Per bank write bursts
system.mem_ctrls1.perBankRdBursts::15           20133                       # Per bank write bursts
system.mem_ctrls1.perBankWrBursts::0            12669                       # Per bank write bursts
system.mem_ctrls1.perBankWrBursts::1            12645                       # Per bank write bursts
system.mem_ctrls1.perBankWrBursts::2            12549                       # Per bank write bursts
system.mem_ctrls1.perBankWrBursts::3            12783                       # Per bank write bursts
system.mem_ctrls1.perBankWrBursts::4            12603                       # Per bank write bursts
system.mem_ctrls1.perBankWrBursts::5            12718                       # Per bank write bursts
system.mem_ctrls1.perBankWrBursts::6            12630                       # Per bank write bursts
system.mem_ctrls1.perBankWrBursts::7            12795                       # Per bank write bursts
system.mem_ctrls1.perBankWrBursts::8            12528                       # Per bank write bursts
system.mem_ctrls1.perBankWrBursts::9            12729                       # Per bank write bursts
system.mem_ctrls1.perBankWrBursts::10           12521                       # Per bank write bursts
system.mem_ctrls1.perBankWrBursts::11           12472                       # Per bank write bursts
system.mem_ctrls1.perBankWrBursts::12           12461                       # Per bank write bursts
system.mem_ctrls1.perBankWrBursts::13           12461                       # Per bank write bursts
system.mem_ctrls1.perBankWrBursts::14           12703                       # Per bank write bursts
system.mem_ctrls1.perBankWrBursts::15           12570                       # Per bank write bursts
system.mem_ctrls1.numRdRetry                    65365                       # Number of times read queue was full causing retry
system.mem_ctrls1.numWrRetry                     2871                       # Number of times write queue was full causing retry
system.mem_ctrls1.totGap                 130692378500                       # Total gap between requests
system.mem_ctrls1.readPktSize::0                    0                       # Read request sizes (log2)
system.mem_ctrls1.readPktSize::1                    0                       # Read request sizes (log2)
system.mem_ctrls1.readPktSize::2                    0                       # Read request sizes (log2)
system.mem_ctrls1.readPktSize::3                    0                       # Read request sizes (log2)
system.mem_ctrls1.readPktSize::4                    0                       # Read request sizes (log2)
system.mem_ctrls1.readPktSize::5                    0                       # Read request sizes (log2)
system.mem_ctrls1.readPktSize::6               324989                       # Read request sizes (log2)
system.mem_ctrls1.writePktSize::0                   0                       # Write request sizes (log2)
system.mem_ctrls1.writePktSize::1                   0                       # Write request sizes (log2)
system.mem_ctrls1.writePktSize::2                   0                       # Write request sizes (log2)
system.mem_ctrls1.writePktSize::3                   0                       # Write request sizes (log2)
system.mem_ctrls1.writePktSize::4                   0                       # Write request sizes (log2)
system.mem_ctrls1.writePktSize::5                   0                       # Write request sizes (log2)
system.mem_ctrls1.writePktSize::6              201837                       # Write request sizes (log2)
system.mem_ctrls1.rdQLenPdf::0                 171272                       # What read queue length does an incoming req see
system.mem_ctrls1.rdQLenPdf::1                   1869                       # What read queue length does an incoming req see
system.mem_ctrls1.rdQLenPdf::2                   1420                       # What read queue length does an incoming req see
system.mem_ctrls1.rdQLenPdf::3                   1559                       # What read queue length does an incoming req see
system.mem_ctrls1.rdQLenPdf::4                   1685                       # What read queue length does an incoming req see
system.mem_ctrls1.rdQLenPdf::5                   1915                       # What read queue length does an incoming req see
system.mem_ctrls1.rdQLenPdf::6                   2042                       # What read queue length does an incoming req see
system.mem_ctrls1.rdQLenPdf::7                   2344                       # What read queue length does an incoming req see
system.mem_ctrls1.rdQLenPdf::8                   2538                       # What read queue length does an incoming req see
system.mem_ctrls1.rdQLenPdf::9                   2647                       # What read queue length does an incoming req see
system.mem_ctrls1.rdQLenPdf::10                  2686                       # What read queue length does an incoming req see
system.mem_ctrls1.rdQLenPdf::11                  2745                       # What read queue length does an incoming req see
system.mem_ctrls1.rdQLenPdf::12                  2842                       # What read queue length does an incoming req see
system.mem_ctrls1.rdQLenPdf::13                  2825                       # What read queue length does an incoming req see
system.mem_ctrls1.rdQLenPdf::14                  2785                       # What read queue length does an incoming req see
system.mem_ctrls1.rdQLenPdf::15                  2896                       # What read queue length does an incoming req see
system.mem_ctrls1.rdQLenPdf::16                  2910                       # What read queue length does an incoming req see
system.mem_ctrls1.rdQLenPdf::17                  2966                       # What read queue length does an incoming req see
system.mem_ctrls1.rdQLenPdf::18                  3015                       # What read queue length does an incoming req see
system.mem_ctrls1.rdQLenPdf::19                  3136                       # What read queue length does an incoming req see
system.mem_ctrls1.rdQLenPdf::20                  2962                       # What read queue length does an incoming req see
system.mem_ctrls1.rdQLenPdf::21                  3132                       # What read queue length does an incoming req see
system.mem_ctrls1.rdQLenPdf::22                  3175                       # What read queue length does an incoming req see
system.mem_ctrls1.rdQLenPdf::23                  3302                       # What read queue length does an incoming req see
system.mem_ctrls1.rdQLenPdf::24                  3418                       # What read queue length does an incoming req see
system.mem_ctrls1.rdQLenPdf::25                  3410                       # What read queue length does an incoming req see
system.mem_ctrls1.rdQLenPdf::26                  3423                       # What read queue length does an incoming req see
system.mem_ctrls1.rdQLenPdf::27                  3473                       # What read queue length does an incoming req see
system.mem_ctrls1.rdQLenPdf::28                  3489                       # What read queue length does an incoming req see
system.mem_ctrls1.rdQLenPdf::29                  3687                       # What read queue length does an incoming req see
system.mem_ctrls1.rdQLenPdf::30                  3801                       # What read queue length does an incoming req see
system.mem_ctrls1.rdQLenPdf::31                 69603                       # What read queue length does an incoming req see
system.mem_ctrls1.wrQLenPdf::0                  35766                       # What write queue length does an incoming req see
system.mem_ctrls1.wrQLenPdf::1                  36709                       # What write queue length does an incoming req see
system.mem_ctrls1.wrQLenPdf::2                  37060                       # What write queue length does an incoming req see
system.mem_ctrls1.wrQLenPdf::3                  37374                       # What write queue length does an incoming req see
system.mem_ctrls1.wrQLenPdf::4                  37603                       # What write queue length does an incoming req see
system.mem_ctrls1.wrQLenPdf::5                   5372                       # What write queue length does an incoming req see
system.mem_ctrls1.wrQLenPdf::6                   5762                       # What write queue length does an incoming req see
system.mem_ctrls1.wrQLenPdf::7                   6191                       # What write queue length does an incoming req see
system.mem_ctrls1.bytesPerActivate::samples       126373                       # Bytes accessed per row activation
system.mem_ctrls1.bytesPerActivate::mean   266.795217                       # Bytes accessed per row activation
system.mem_ctrls1.bytesPerActivate::gmean   206.711899                       # Bytes accessed per row activation
system.mem_ctrls1.bytesPerActivate::stdev   197.516137                       # Bytes accessed per row activation
system.mem_ctrls1.bytesPerActivate::0-127        25418     20.11%     20.11% # Bytes accessed per row activation
system.mem_ctrls1.bytesPerActivate::128-255        29813     23.59%     43.70% # Bytes accessed per row activation
system.mem_ctrls1.bytesPerActivate::256-383        53014     41.95%     85.66% # Bytes accessed per row activation
system.mem_ctrls1.bytesPerActivate::384-511         5898      4.67%     90.32% # Bytes accessed per row activation
system.mem_ctrls1.bytesPerActivate::512-639         4400      3.48%     93.80% # Bytes accessed per row activation
system.mem_ctrls1.bytesPerActivate::640-767         2282      1.81%     95.61% # Bytes accessed per row activation
system.mem_ctrls1.bytesPerActivate::768-895         1455      1.15%     96.76% # Bytes accessed per row activation
system.mem_ctrls1.bytesPerActivate::896-1023         1068      0.85%     97.61% # Bytes accessed per row activation
system.mem_ctrls1.bytesPerActivate::1024-1151         3025      2.39%    100.00% # Bytes accessed per row activation
system.mem_ctrls1.bytesPerActivate::total       126373                       # Bytes accessed per row activation
system.mem_ctrls1.rdPerTurnAround::samples        36087                       # Reads before turning the bus around for writes
system.mem_ctrls1.rdPerTurnAround::mean      9.005154                       # Reads before turning the bus around for writes
system.mem_ctrls1.rdPerTurnAround::stdev    21.165935                       # Reads before turning the bus around for writes
system.mem_ctrls1.rdPerTurnAround::0-127        36046     99.89%     99.89% # Reads before turning the bus around for writes
system.mem_ctrls1.rdPerTurnAround::128-255           39      0.11%     99.99% # Reads before turning the bus around for writes
system.mem_ctrls1.rdPerTurnAround::1152-1279            1      0.00%    100.00% # Reads before turning the bus around for writes
system.mem_ctrls1.rdPerTurnAround::2816-2943            1      0.00%    100.00% # Reads before turning the bus around for writes
system.mem_ctrls1.rdPerTurnAround::total        36087                       # Reads before turning the bus around for writes
system.mem_ctrls1.wrPerTurnAround::samples        36087                       # Writes before turning the bus around for reads
system.mem_ctrls1.wrPerTurnAround::mean      5.593067                       # Writes before turning the bus around for reads
system.mem_ctrls1.wrPerTurnAround::gmean     5.396560                       # Writes before turning the bus around for reads
system.mem_ctrls1.wrPerTurnAround::stdev     1.947954                       # Writes before turning the bus around for reads
system.mem_ctrls1.wrPerTurnAround::4-7          32776     90.82%     90.82% # Writes before turning the bus around for reads
system.mem_ctrls1.wrPerTurnAround::8-11          2120      5.87%     96.70% # Writes before turning the bus around for reads
system.mem_ctrls1.wrPerTurnAround::12-15          709      1.96%     98.66% # Writes before turning the bus around for reads
system.mem_ctrls1.wrPerTurnAround::16-19          482      1.34%    100.00% # Writes before turning the bus around for reads
system.mem_ctrls1.wrPerTurnAround::total        36087                       # Writes before turning the bus around for reads
system.mem_ctrls1.totQLat                 29290395020                       # Total ticks spent queuing
system.mem_ctrls1.totMemAccLat            35383620020                       # Total ticks spent from burst creation until serviced by the DRAM
system.mem_ctrls1.totBusLat                1624860000                       # Total ticks spent in databus transfers
system.mem_ctrls1.avgQLat                    90132.06                       # Average queueing delay per DRAM burst
system.mem_ctrls1.avgBusLat                   5000.00                       # Average bus latency per DRAM burst
system.mem_ctrls1.avgMemAccLat              108882.06                       # Average memory access latency per DRAM burst
system.mem_ctrls1.avgRdBW                      159.14                       # Average DRAM read bandwidth in MiByte/s
system.mem_ctrls1.avgWrBW                       98.84                       # Average achieved write bandwidth in MiByte/s
system.mem_ctrls1.avgRdBWSys                   159.15                       # Average system read bandwidth in MiByte/s
system.mem_ctrls1.avgWrBWSys                    98.84                       # Average system write bandwidth in MiByte/s
system.mem_ctrls1.peakBW                     12800.00                       # Theoretical peak bandwidth in MiByte/s
system.mem_ctrls1.busUtil                        2.02                       # Data bus utilization in percentage
system.mem_ctrls1.busUtilRead                    1.24                       # Data bus utilization in percentage for reads
system.mem_ctrls1.busUtilWrite                   0.77                       # Data bus utilization in percentage for writes
system.mem_ctrls1.avgRdQLen                      1.24                       # Average read queue length when enqueuing
system.mem_ctrls1.avgWrQLen                      2.98                       # Average write queue length when enqueuing
system.mem_ctrls1.readRowHits                  255673                       # Number of row buffer hits during reads
system.mem_ctrls1.writeRowHits                 144762                       # Number of row buffer hits during writes
system.mem_ctrls1.readRowHitRate                78.68                       # Row buffer hit rate for reads
system.mem_ctrls1.writeRowHitRate               71.72                       # Row buffer hit rate for writes
system.mem_ctrls1.avgGap                    248075.04                       # Average gap between requests
system.mem_ctrls1.pageHitRate                   76.01                       # Row buffer hit rate, read and write combined
system.mem_ctrls1.memoryStateTime::IDLE   28549371500                       # Time in different power states
system.mem_ctrls1.memoryStateTime::REF     4364100000                       # Time in different power states
system.mem_ctrls1.memoryStateTime::PRE_PDN            0                       # Time in different power states
system.mem_ctrls1.memoryStateTime::ACT    97779534500                       # Time in different power states
system.mem_ctrls1.memoryStateTime::ACT_PDN            0                       # Time in different power states
system.mem_ctrls1.actEnergy::0              485510760                       # Energy for activate commands per rank (pJ)
system.mem_ctrls1.actEnergy::1              469869120                       # Energy for activate commands per rank (pJ)
system.mem_ctrls1.preEnergy::0              264911625                       # Energy for precharge commands per rank (pJ)
system.mem_ctrls1.preEnergy::1              256377000                       # Energy for precharge commands per rank (pJ)
system.mem_ctrls1.readEnergy::0            1275744600                       # Energy for read commands per rank (pJ)
system.mem_ctrls1.readEnergy::1            1259029200                       # Energy for read commands per rank (pJ)
system.mem_ctrls1.writeEnergy::0            657020160                       # Energy for write commands per rank (pJ)
system.mem_ctrls1.writeEnergy::1            650883600                       # Energy for write commands per rank (pJ)
system.mem_ctrls1.refreshEnergy::0         8536179600                       # Energy for refresh commands per rank (pJ)
system.mem_ctrls1.refreshEnergy::1         8536179600                       # Energy for refresh commands per rank (pJ)
system.mem_ctrls1.actBackEnergy::0        49137283485                       # Energy for active background per rank (pJ)
system.mem_ctrls1.actBackEnergy::1        48197074185                       # Energy for active background per rank (pJ)
system.mem_ctrls1.preBackEnergy::0        35312601000                       # Energy for precharge background per rank (pJ)
system.mem_ctrls1.preBackEnergy::1        36137346000                       # Energy for precharge background per rank (pJ)
system.mem_ctrls1.totalEnergy::0          95669251230                       # Total energy per rank (pJ)
system.mem_ctrls1.totalEnergy::1          95506758705                       # Total energy per rank (pJ)
system.mem_ctrls1.averagePower::0          732.018089                       # Core power per rank (mW)
system.mem_ctrls1.averagePower::1          730.774769                       # Core power per rank (mW)
system.mem_ctrls2.bytes_read::ruby.dir_cntrl2     20798272                       # Number of bytes read from this memory
system.mem_ctrls2.bytes_read::total          20798272                       # Number of bytes read from this memory
system.mem_ctrls2.bytes_written::ruby.dir_cntrl2     12917952                       # Number of bytes written to this memory
system.mem_ctrls2.bytes_written::total       12917952                       # Number of bytes written to this memory
system.mem_ctrls2.num_reads::ruby.dir_cntrl2       324973                       # Number of read requests responded to by this memory
system.mem_ctrls2.num_reads::total             324973                       # Number of read requests responded to by this memory
system.mem_ctrls2.num_writes::ruby.dir_cntrl2       201843                       # Number of write requests responded to by this memory
system.mem_ctrls2.num_writes::total            201843                       # Number of write requests responded to by this memory
system.mem_ctrls2.bw_read::ruby.dir_cntrl2    159138098                       # Total read bandwidth from this memory (bytes/s)
system.mem_ctrls2.bw_read::total            159138098                       # Total read bandwidth from this memory (bytes/s)
system.mem_ctrls2.bw_write::ruby.dir_cntrl2     98841784                       # Write bandwidth from this memory (bytes/s)
system.mem_ctrls2.bw_write::total            98841784                       # Write bandwidth from this memory (bytes/s)
system.mem_ctrls2.bw_total::ruby.dir_cntrl2    257979883                       # Total bandwidth to/from this memory (bytes/s)
system.mem_ctrls2.bw_total::total           257979883                       # Total bandwidth to/from this memory (bytes/s)
system.mem_ctrls2.readReqs                     324973                       # Number of read requests accepted
system.mem_ctrls2.writeReqs                    201843                       # Number of write requests accepted
system.mem_ctrls2.readBursts                   324973                       # Number of DRAM read bursts, including those serviced by the write queue
system.mem_ctrls2.writeBursts                  201843                       # Number of DRAM write bursts, including those merged in the write queue
system.mem_ctrls2.bytesReadDRAM              20797248                       # Total number of bytes read from DRAM
system.mem_ctrls2.bytesReadWrQ                   1024                       # Total number of bytes read from write queue
system.mem_ctrls2.bytesWritten               12917760                       # Total number of bytes written to DRAM
system.mem_ctrls2.bytesReadSys               20798272                       # Total read bytes from the system interface side
system.mem_ctrls2.bytesWrittenSys            12917952                       # Total written bytes from the system interface side
system.mem_ctrls2.servicedByWrQ                    16                       # Number of DRAM read bursts serviced by the write queue
system.mem_ctrls2.mergedWrBursts                    0                       # Number of DRAM write bursts merged with an existing one
system.mem_ctrls2.neitherReadNorWriteReqs            0                       # Number of requests that are neither read nor write
system.mem_ctrls2.perBankRdBursts::0            20056                       # Per bank write bursts
system.mem_ctrls2.perBankRdBursts::1            20678                       # Per bank write bursts
system.mem_ctrls2.perBankRdBursts::2            20244                       # Per bank write bursts
system.mem_ctrls2.perBankRdBursts::3            20735                       # Per bank write bursts
system.mem_ctrls2.perBankRdBursts::4            20384                       # Per bank write bursts
system.mem_ctrls2.perBankRdBursts::5            20529                       # Per bank write bursts
system.mem_ctrls2.perBankRdBursts::6            20411                       # Per bank write bursts
system.mem_ctrls2.perBankRdBursts::7            20490                       # Per bank write bursts
system.mem_ctrls2.perBankRdBursts::8            20154                       # Per bank write bursts
system.mem_ctrls2.perBankRdBursts::9            20392                       # Per bank write bursts
system.mem_ctrls2.perBankRdBursts::10           20157                       # Per bank write bursts
system.mem_ctrls2.perBankRdBursts::11           20586                       # Per bank write bursts
system.mem_ctrls2.perBankRdBursts::12           20035                       # Per bank write bursts
system.mem_ctrls2.perBankRdBursts::13           19856                       # Per bank write bursts
system.mem_ctrls2.perBankRdBursts::14           20081                       # Per bank write bursts
system.mem_ctrls2.perBankRdBursts::15           20169                       # Per bank write bursts
system.mem_ctrls2.perBankWrBursts::0            12663                       # Per bank write bursts
system.mem_ctrls2.perBankWrBursts::1            12644                       # Per bank write bursts
system.mem_ctrls2.perBankWrBursts::2            12544                       # Per bank write bursts
system.mem_ctrls2.perBankWrBursts::3            12791                       # Per bank write bursts
system.mem_ctrls2.perBankWrBursts::4            12600                       # Per bank write bursts
system.mem_ctrls2.perBankWrBursts::5            12702                       # Per bank write bursts
system.mem_ctrls2.perBankWrBursts::6            12638                       # Per bank write bursts
system.mem_ctrls2.perBankWrBursts::7            12794                       # Per bank write bursts
system.mem_ctrls2.perBankWrBursts::8            12512                       # Per bank write bursts
system.mem_ctrls2.perBankWrBursts::9            12735                       # Per bank write bursts
system.mem_ctrls2.perBankWrBursts::10           12518                       # Per bank write bursts
system.mem_ctrls2.perBankWrBursts::11           12486                       # Per bank write bursts
system.mem_ctrls2.perBankWrBursts::12           12468                       # Per bank write bursts
system.mem_ctrls2.perBankWrBursts::13           12455                       # Per bank write bursts
system.mem_ctrls2.perBankWrBursts::14           12707                       # Per bank write bursts
system.mem_ctrls2.perBankWrBursts::15           12583                       # Per bank write bursts
system.mem_ctrls2.numRdRetry                    63848                       # Number of times read queue was full causing retry
system.mem_ctrls2.numWrRetry                     2351                       # Number of times write queue was full causing retry
system.mem_ctrls2.totGap                 130693126000                       # Total gap between requests
system.mem_ctrls2.readPktSize::0                    0                       # Read request sizes (log2)
system.mem_ctrls2.readPktSize::1                    0                       # Read request sizes (log2)
system.mem_ctrls2.readPktSize::2                    0                       # Read request sizes (log2)
system.mem_ctrls2.readPktSize::3                    0                       # Read request sizes (log2)
system.mem_ctrls2.readPktSize::4                    0                       # Read request sizes (log2)
system.mem_ctrls2.readPktSize::5                    0                       # Read request sizes (log2)
system.mem_ctrls2.readPktSize::6               324973                       # Read request sizes (log2)
system.mem_ctrls2.writePktSize::0                   0                       # Write request sizes (log2)
system.mem_ctrls2.writePktSize::1                   0                       # Write request sizes (log2)
system.mem_ctrls2.writePktSize::2                   0                       # Write request sizes (log2)
system.mem_ctrls2.writePktSize::3                   0                       # Write request sizes (log2)
system.mem_ctrls2.writePktSize::4                   0                       # Write request sizes (log2)
system.mem_ctrls2.writePktSize::5                   0                       # Write request sizes (log2)
system.mem_ctrls2.writePktSize::6              201843                       # Write request sizes (log2)
system.mem_ctrls2.rdQLenPdf::0                 171405                       # What read queue length does an incoming req see
system.mem_ctrls2.rdQLenPdf::1                   1699                       # What read queue length does an incoming req see
system.mem_ctrls2.rdQLenPdf::2                   1527                       # What read queue length does an incoming req see
system.mem_ctrls2.rdQLenPdf::3                   1594                       # What read queue length does an incoming req see
system.mem_ctrls2.rdQLenPdf::4                   1744                       # What read queue length does an incoming req see
system.mem_ctrls2.rdQLenPdf::5                   1937                       # What read queue length does an incoming req see
system.mem_ctrls2.rdQLenPdf::6                   2069                       # What read queue length does an incoming req see
system.mem_ctrls2.rdQLenPdf::7                   2278                       # What read queue length does an incoming req see
system.mem_ctrls2.rdQLenPdf::8                   2466                       # What read queue length does an incoming req see
system.mem_ctrls2.rdQLenPdf::9                   2617                       # What read queue length does an incoming req see
system.mem_ctrls2.rdQLenPdf::10                  2734                       # What read queue length does an incoming req see
system.mem_ctrls2.rdQLenPdf::11                  2805                       # What read queue length does an incoming req see
system.mem_ctrls2.rdQLenPdf::12                  2714                       # What read queue length does an incoming req see
system.mem_ctrls2.rdQLenPdf::13                  2874                       # What read queue length does an incoming req see
system.mem_ctrls2.rdQLenPdf::14                  2925                       # What read queue length does an incoming req see
system.mem_ctrls2.rdQLenPdf::15                  2970                       # What read queue length does an incoming req see
system.mem_ctrls2.rdQLenPdf::16                  2915                       # What read queue length does an incoming req see
system.mem_ctrls2.rdQLenPdf::17                  2945                       # What read queue length does an incoming req see
system.mem_ctrls2.rdQLenPdf::18                  3097                       # What read queue length does an incoming req see
system.mem_ctrls2.rdQLenPdf::19                  3202                       # What read queue length does an incoming req see
system.mem_ctrls2.rdQLenPdf::20                  3123                       # What read queue length does an incoming req see
system.mem_ctrls2.rdQLenPdf::21                  3254                       # What read queue length does an incoming req see
system.mem_ctrls2.rdQLenPdf::22                  3246                       # What read queue length does an incoming req see
system.mem_ctrls2.rdQLenPdf::23                  3387                       # What read queue length does an incoming req see
system.mem_ctrls2.rdQLenPdf::24                  3527                       # What read queue length does an incoming req see
system.mem_ctrls2.rdQLenPdf::25                  3544                       # What read queue length does an incoming req see
system.mem_ctrls2.rdQLenPdf::26                  3599                       # What read queue length does an incoming req see
system.mem_ctrls2.rdQLenPdf::27                  3624                       # What read queue length does an incoming req see
system.mem_ctrls2.rdQLenPdf::28                  3554                       # What read queue length does an incoming req see
system.mem_ctrls2.rdQLenPdf::29                  3716                       # What read queue length does an incoming req see
system.mem_ctrls2.rdQLenPdf::30                  3927                       # What read queue length does an incoming req see
system.mem_ctrls2.rdQLenPdf::31                 67939                       # What read queue length does an incoming req see
system.mem_ctrls2.wrQLenPdf::0                  35821                       # What write queue length does an incoming req see
system.mem_ctrls2.wrQLenPdf::1                  36876                       # What write queue length does an incoming req see
system.mem_ctrls2.wrQLenPdf::2                  37223                       # What write queue length does an incoming req see
system.mem_ctrls2.wrQLenPdf::3                  37526                       # What write queue length does an incoming req see
system.mem_ctrls2.wrQLenPdf::4                  37665                       # What write queue length does an incoming req see
system.mem_ctrls2.wrQLenPdf::5                   5472                       # What write queue length does an incoming req see
system.mem_ctrls2.wrQLenPdf::6                   5783                       # What write queue length does an incoming req see
system.mem_ctrls2.wrQLenPdf::7                   5477                       # What write queue length does an incoming req see
system.mem_ctrls2.bytesPerActivate::samples       126061                       # Bytes accessed per row activation
system.mem_ctrls2.bytesPerActivate::mean   267.447918                       # Bytes accessed per row activation
system.mem_ctrls2.bytesPerActivate::gmean   207.224650                       # Bytes accessed per row activation
system.mem_ctrls2.bytesPerActivate::stdev   197.474408                       # Bytes accessed per row activation
system.mem_ctrls2.bytesPerActivate::0-127        25524     20.25%     20.25% # Bytes accessed per row activation
system.mem_ctrls2.bytesPerActivate::128-255        28788     22.84%     43.08% # Bytes accessed per row activation
system.mem_ctrls2.bytesPerActivate::256-383        53616     42.53%     85.62% # Bytes accessed per row activation
system.mem_ctrls2.bytesPerActivate::384-511         5870      4.66%     90.27% # Bytes accessed per row activation
system.mem_ctrls2.bytesPerActivate::512-639         4473      3.55%     93.82% # Bytes accessed per row activation
system.mem_ctrls2.bytesPerActivate::640-767         2287      1.81%     95.63% # Bytes accessed per row activation
system.mem_ctrls2.bytesPerActivate::768-895         1415      1.12%     96.76% # Bytes accessed per row activation
system.mem_ctrls2.bytesPerActivate::896-1023         1037      0.82%     97.58% # Bytes accessed per row activation
system.mem_ctrls2.bytesPerActivate::1024-1151         3051      2.42%    100.00% # Bytes accessed per row activation
system.mem_ctrls2.bytesPerActivate::total       126061                       # Bytes accessed per row activation
system.mem_ctrls2.rdPerTurnAround::samples        36114                       # Reads before turning the bus around for writes
system.mem_ctrls2.rdPerTurnAround::mean      8.997148                       # Reads before turning the bus around for writes
system.mem_ctrls2.rdPerTurnAround::stdev    21.208465                       # Reads before turning the bus around for writes
system.mem_ctrls2.rdPerTurnAround::0-127        36067     99.87%     99.87% # Reads before turning the bus around for writes
system.mem_ctrls2.rdPerTurnAround::128-255           45      0.12%     99.99% # Reads before turning the bus around for writes
system.mem_ctrls2.rdPerTurnAround::1152-1279            1      0.00%    100.00% # Reads before turning the bus around for writes
system.mem_ctrls2.rdPerTurnAround::2816-2943            1      0.00%    100.00% # Reads before turning the bus around for writes
system.mem_ctrls2.rdPerTurnAround::total        36114                       # Reads before turning the bus around for writes
system.mem_ctrls2.wrPerTurnAround::samples        36114                       # Writes before turning the bus around for reads
system.mem_ctrls2.wrPerTurnAround::mean      5.588968                       # Writes before turning the bus around for reads
system.mem_ctrls2.wrPerTurnAround::gmean     5.395600                       # Writes before turning the bus around for reads
system.mem_ctrls2.wrPerTurnAround::stdev     1.925384                       # Writes before turning the bus around for reads
system.mem_ctrls2.wrPerTurnAround::4-7          32803     90.83%     90.83% # Writes before turning the bus around for reads
system.mem_ctrls2.wrPerTurnAround::8-11          2134      5.91%     96.74% # Writes before turning the bus around for reads
system.mem_ctrls2.wrPerTurnAround::12-15          760      2.10%     98.85% # Writes before turning the bus around for reads
system.mem_ctrls2.wrPerTurnAround::16-19          417      1.15%    100.00% # Writes before turning the bus around for reads
system.mem_ctrls2.wrPerTurnAround::total        36114                       # Writes before turning the bus around for reads
system.mem_ctrls2.totQLat                 29125378230                       # Total ticks spent queuing
system.mem_ctrls2.totMemAccLat            35218321980                       # Total ticks spent from burst creation until serviced by the DRAM
system.mem_ctrls2.totBusLat                1624785000                       # Total ticks spent in databus transfers
system.mem_ctrls2.avgQLat                    89628.41                       # Average queueing delay per DRAM burst
system.mem_ctrls2.avgBusLat                   5000.00                       # Average bus latency per DRAM burst
system.mem_ctrls2.avgMemAccLat              108378.41                       # Average memory access latency per DRAM burst
system.mem_ctrls2.avgRdBW                      159.13                       # Average DRAM read bandwidth in MiByte/s
system.mem_ctrls2.avgWrBW                       98.84                       # Average achieved write bandwidth in MiByte/s
system.mem_ctrls2.avgRdBWSys                   159.14                       # Average system read bandwidth in MiByte/s
system.mem_ctrls2.avgWrBWSys                    98.84                       # Average system write bandwidth in MiByte/s
system.mem_ctrls2.peakBW                     12800.00                       # Theoretical peak bandwidth in MiByte/s
system.mem_ctrls2.busUtil                        2.02                       # Data bus utilization in percentage
system.mem_ctrls2.busUtilRead                    1.24                       # Data bus utilization in percentage for reads
system.mem_ctrls2.busUtilWrite                   0.77                       # Data bus utilization in percentage for writes
system.mem_ctrls2.avgRdQLen                      1.23                       # Average read queue length when enqueuing
system.mem_ctrls2.avgWrQLen                      2.95                       # Average write queue length when enqueuing
system.mem_ctrls2.readRowHits                  255592                       # Number of row buffer hits during reads
system.mem_ctrls2.writeRowHits                 145141                       # Number of row buffer hits during writes
system.mem_ctrls2.readRowHitRate                78.65                       # Row buffer hit rate for reads
system.mem_ctrls2.writeRowHitRate               71.91                       # Row buffer hit rate for writes
system.mem_ctrls2.avgGap                    248081.16                       # Average gap between requests
system.mem_ctrls2.pageHitRate                   76.07                       # Row buffer hit rate, read and write combined
system.mem_ctrls2.memoryStateTime::IDLE   28403544000                       # Time in different power states
system.mem_ctrls2.memoryStateTime::REF     4364100000                       # Time in different power states
system.mem_ctrls2.memoryStateTime::PRE_PDN            0                       # Time in different power states
system.mem_ctrls2.memoryStateTime::ACT    97924836000                       # Time in different power states
system.mem_ctrls2.memoryStateTime::ACT_PDN            0                       # Time in different power states
system.mem_ctrls2.actEnergy::0              484112160                       # Energy for activate commands per rank (pJ)
system.mem_ctrls2.actEnergy::1              468909000                       # Energy for activate commands per rank (pJ)
system.mem_ctrls2.preEnergy::0              264148500                       # Energy for precharge commands per rank (pJ)
system.mem_ctrls2.preEnergy::1              255853125                       # Energy for precharge commands per rank (pJ)
system.mem_ctrls2.readEnergy::0            1275495000                       # Energy for read commands per rank (pJ)
system.mem_ctrls2.readEnergy::1            1259138400                       # Energy for read commands per rank (pJ)
system.mem_ctrls2.writeEnergy::0            656916480                       # Energy for write commands per rank (pJ)
system.mem_ctrls2.writeEnergy::1            651006720                       # Energy for write commands per rank (pJ)
system.mem_ctrls2.refreshEnergy::0         8536179600                       # Energy for refresh commands per rank (pJ)
system.mem_ctrls2.refreshEnergy::1         8536179600                       # Energy for refresh commands per rank (pJ)
system.mem_ctrls2.actBackEnergy::0        48869123850                       # Energy for active background per rank (pJ)
system.mem_ctrls2.actBackEnergy::1        47941501005                       # Energy for active background per rank (pJ)
system.mem_ctrls2.preBackEnergy::0        35547827250                       # Energy for precharge background per rank (pJ)
system.mem_ctrls2.preBackEnergy::1        36361531500                       # Energy for precharge background per rank (pJ)
system.mem_ctrls2.totalEnergy::0          95633802840                       # Total energy per rank (pJ)
system.mem_ctrls2.totalEnergy::1          95474119350                       # Total energy per rank (pJ)
system.mem_ctrls2.averagePower::0          731.746868                       # Core power per rank (mW)
system.mem_ctrls2.averagePower::1          730.525042                       # Core power per rank (mW)
system.mem_ctrls3.bytes_read::ruby.dir_cntrl3     20777280                       # Number of bytes read from this memory
system.mem_ctrls3.bytes_read::total          20777280                       # Number of bytes read from this memory
system.mem_ctrls3.bytes_written::ruby.dir_cntrl3     12916800                       # Number of bytes written to this memory
system.mem_ctrls3.bytes_written::total       12916800                       # Number of bytes written to this memory
system.mem_ctrls3.num_reads::ruby.dir_cntrl3       324645                       # Number of read requests responded to by this memory
system.mem_ctrls3.num_reads::total             324645                       # Number of read requests responded to by this memory
system.mem_ctrls3.num_writes::ruby.dir_cntrl3       201825                       # Number of write requests responded to by this memory
system.mem_ctrls3.num_writes::total            201825                       # Number of write requests responded to by this memory
system.mem_ctrls3.bw_read::ruby.dir_cntrl3    158977478                       # Total read bandwidth from this memory (bytes/s)
system.mem_ctrls3.bw_read::total            158977478                       # Total read bandwidth from this memory (bytes/s)
system.mem_ctrls3.bw_write::ruby.dir_cntrl3     98832970                       # Write bandwidth from this memory (bytes/s)
system.mem_ctrls3.bw_write::total            98832970                       # Write bandwidth from this memory (bytes/s)
system.mem_ctrls3.bw_total::ruby.dir_cntrl3    257810448                       # Total bandwidth to/from this memory (bytes/s)
system.mem_ctrls3.bw_total::total           257810448                       # Total bandwidth to/from this memory (bytes/s)
system.mem_ctrls3.readReqs                     324645                       # Number of read requests accepted
system.mem_ctrls3.writeReqs                    201825                       # Number of write requests accepted
system.mem_ctrls3.readBursts                   324645                       # Number of DRAM read bursts, including those serviced by the write queue
system.mem_ctrls3.writeBursts                  201825                       # Number of DRAM write bursts, including those merged in the write queue
system.mem_ctrls3.bytesReadDRAM              20776448                       # Total number of bytes read from DRAM
system.mem_ctrls3.bytesReadWrQ                    832                       # Total number of bytes read from write queue
system.mem_ctrls3.bytesWritten               12916608                       # Total number of bytes written to DRAM
system.mem_ctrls3.bytesReadSys               20777280                       # Total read bytes from the system interface side
system.mem_ctrls3.bytesWrittenSys            12916800                       # Total written bytes from the system interface side
system.mem_ctrls3.servicedByWrQ                    13                       # Number of DRAM read bursts serviced by the write queue
system.mem_ctrls3.mergedWrBursts                    0                       # Number of DRAM write bursts merged with an existing one
system.mem_ctrls3.neitherReadNorWriteReqs            0                       # Number of requests that are neither read nor write
system.mem_ctrls3.perBankRdBursts::0            20051                       # Per bank write bursts
system.mem_ctrls3.perBankRdBursts::1            20651                       # Per bank write bursts
system.mem_ctrls3.perBankRdBursts::2            20160                       # Per bank write bursts
system.mem_ctrls3.perBankRdBursts::3            20704                       # Per bank write bursts
system.mem_ctrls3.perBankRdBursts::4            20318                       # Per bank write bursts
system.mem_ctrls3.perBankRdBursts::5            20526                       # Per bank write bursts
system.mem_ctrls3.perBankRdBursts::6            20423                       # Per bank write bursts
system.mem_ctrls3.perBankRdBursts::7            20471                       # Per bank write bursts
system.mem_ctrls3.perBankRdBursts::8            20145                       # Per bank write bursts
system.mem_ctrls3.perBankRdBursts::9            20381                       # Per bank write bursts
system.mem_ctrls3.perBankRdBursts::10           20195                       # Per bank write bursts
system.mem_ctrls3.perBankRdBursts::11           20539                       # Per bank write bursts
system.mem_ctrls3.perBankRdBursts::12           19977                       # Per bank write bursts
system.mem_ctrls3.perBankRdBursts::13           19847                       # Per bank write bursts
system.mem_ctrls3.perBankRdBursts::14           20103                       # Per bank write bursts
system.mem_ctrls3.perBankRdBursts::15           20141                       # Per bank write bursts
system.mem_ctrls3.perBankWrBursts::0            12669                       # Per bank write bursts
system.mem_ctrls3.perBankWrBursts::1            12634                       # Per bank write bursts
system.mem_ctrls3.perBankWrBursts::2            12553                       # Per bank write bursts
system.mem_ctrls3.perBankWrBursts::3            12781                       # Per bank write bursts
system.mem_ctrls3.perBankWrBursts::4            12599                       # Per bank write bursts
system.mem_ctrls3.perBankWrBursts::5            12705                       # Per bank write bursts
system.mem_ctrls3.perBankWrBursts::6            12634                       # Per bank write bursts
system.mem_ctrls3.perBankWrBursts::7            12787                       # Per bank write bursts
system.mem_ctrls3.perBankWrBursts::8            12509                       # Per bank write bursts
system.mem_ctrls3.perBankWrBursts::9            12738                       # Per bank write bursts
system.mem_ctrls3.perBankWrBursts::10           12518                       # Per bank write bursts
system.mem_ctrls3.perBankWrBursts::11           12492                       # Per bank write bursts
system.mem_ctrls3.perBankWrBursts::12           12464                       # Per bank write bursts
system.mem_ctrls3.perBankWrBursts::13           12460                       # Per bank write bursts
system.mem_ctrls3.perBankWrBursts::14           12714                       # Per bank write bursts
system.mem_ctrls3.perBankWrBursts::15           12565                       # Per bank write bursts
system.mem_ctrls3.numRdRetry                    57529                       # Number of times read queue was full causing retry
system.mem_ctrls3.numWrRetry                     2674                       # Number of times write queue was full causing retry
system.mem_ctrls3.totGap                 130692396000                       # Total gap between requests
system.mem_ctrls3.readPktSize::0                    0                       # Read request sizes (log2)
system.mem_ctrls3.readPktSize::1                    0                       # Read request sizes (log2)
system.mem_ctrls3.readPktSize::2                    0                       # Read request sizes (log2)
system.mem_ctrls3.readPktSize::3                    0                       # Read request sizes (log2)
system.mem_ctrls3.readPktSize::4                    0                       # Read request sizes (log2)
system.mem_ctrls3.readPktSize::5                    0                       # Read request sizes (log2)
system.mem_ctrls3.readPktSize::6               324645                       # Read request sizes (log2)
system.mem_ctrls3.writePktSize::0                   0                       # Write request sizes (log2)
system.mem_ctrls3.writePktSize::1                   0                       # Write request sizes (log2)
system.mem_ctrls3.writePktSize::2                   0                       # Write request sizes (log2)
system.mem_ctrls3.writePktSize::3                   0                       # Write request sizes (log2)
system.mem_ctrls3.writePktSize::4                   0                       # Write request sizes (log2)
system.mem_ctrls3.writePktSize::5                   0                       # Write request sizes (log2)
system.mem_ctrls3.writePktSize::6              201825                       # Write request sizes (log2)
system.mem_ctrls3.rdQLenPdf::0                 171086                       # What read queue length does an incoming req see
system.mem_ctrls3.rdQLenPdf::1                   1794                       # What read queue length does an incoming req see
system.mem_ctrls3.rdQLenPdf::2                   1475                       # What read queue length does an incoming req see
system.mem_ctrls3.rdQLenPdf::3                   1609                       # What read queue length does an incoming req see
system.mem_ctrls3.rdQLenPdf::4                   1849                       # What read queue length does an incoming req see
system.mem_ctrls3.rdQLenPdf::5                   1985                       # What read queue length does an incoming req see
system.mem_ctrls3.rdQLenPdf::6                   2160                       # What read queue length does an incoming req see
system.mem_ctrls3.rdQLenPdf::7                   2422                       # What read queue length does an incoming req see
system.mem_ctrls3.rdQLenPdf::8                   2608                       # What read queue length does an incoming req see
system.mem_ctrls3.rdQLenPdf::9                   2657                       # What read queue length does an incoming req see
system.mem_ctrls3.rdQLenPdf::10                  2863                       # What read queue length does an incoming req see
system.mem_ctrls3.rdQLenPdf::11                  2957                       # What read queue length does an incoming req see
system.mem_ctrls3.rdQLenPdf::12                  3029                       # What read queue length does an incoming req see
system.mem_ctrls3.rdQLenPdf::13                  3080                       # What read queue length does an incoming req see
system.mem_ctrls3.rdQLenPdf::14                  3230                       # What read queue length does an incoming req see
system.mem_ctrls3.rdQLenPdf::15                  3302                       # What read queue length does an incoming req see
system.mem_ctrls3.rdQLenPdf::16                  3392                       # What read queue length does an incoming req see
system.mem_ctrls3.rdQLenPdf::17                  3401                       # What read queue length does an incoming req see
system.mem_ctrls3.rdQLenPdf::18                  3306                       # What read queue length does an incoming req see
system.mem_ctrls3.rdQLenPdf::19                  3323                       # What read queue length does an incoming req see
system.mem_ctrls3.rdQLenPdf::20                  3278                       # What read queue length does an incoming req see
system.mem_ctrls3.rdQLenPdf::21                  3330                       # What read queue length does an incoming req see
system.mem_ctrls3.rdQLenPdf::22                  3584                       # What read queue length does an incoming req see
system.mem_ctrls3.rdQLenPdf::23                  3595                       # What read queue length does an incoming req see
system.mem_ctrls3.rdQLenPdf::24                  3668                       # What read queue length does an incoming req see
[...]
system.ruby.L2Cache_Controller.ISS.Mem_Data::total       504370                      
system.ruby.L2Cache_Controller.IS.Mem_Data |         503      3.21%      3.21% |         454      2.89%      6.10% |         438      2.79%      8.89% |         449      2.86%     11.75% |         450      2.87%     14.62% |         430      2.74%     17.36% |         472      3.01%     20.37% |         491      3.13%     23.50% |         505      3.22%     26.72% |         445      2.84%     29.56% |         487      3.10%     32.66% |         498      3.17%     35.84% |         551      3.51%     39.35% |         523      3.33%     42.68% |         510      3.25%     45.93% |         492      3.14%     49.07% |         515      3.28%     52.35% |         532      3.39%     55.74% |         529      3.37%     59.12% |         483      3.08%     62.19% |         474      3.02%     65.22% |         523      3.33%     68.55% |         477      3.04%     71.59% |         451      2.87%     74.46% |         518      3.30%     77.77% |         578      3.68%     81.45% |         522      3.33%     84.78% |         481      3.07%     87.84% |         456      2.91%     90.75% |         510      3.25%     94.00% |         487      3.10%     97.11% |         454      2.89%    100.00%
system.ruby.L2Cache_Controller.IS.Mem_Data::total        15688                      
system.ruby.L2Cache_Controller.IM.L1_GETX |           1    100.00%    100.00% |           0      0.00%    100.00% |           0      0.00%    100.00% |           0      0.00%    100.00% |           0      0.00%    100.00% |           0      0.00%    100.00% |           0      0.00%    100.00% |           0      0.00%    100.00% |           0      0.00%    100.00% |           0      0.00%    100.00% |           0      0.00%    100.00% |           0      0.00%    100.00% |           0      0.00%    100.00% |           0      0.00%    100.00% |           0      0.00%    100.00% |           0      0.00%    100.00% |           0      0.00%    100.00% |           0      0.00%    100.00% |           0      0.00%    100.00% |           0      0.00%    100.00% |           0      0.00%    100.00% |           0      0.00%    100.00% |           0      0.00%    100.00% |           0      0.00%    100.00% |           0      0.00%    100.00% |           0      0.00%    100.00% |           0      0.00%    100.00% |           0      0.00%    100.00% |           0      0.00%    100.00% |           0      0.00%    100.00% |           0      0.00%    100.00% |           0      0.00%    100.00%
system.ruby.L2Cache_Controller.IM.L1_GETX::total            1                      
system.ruby.L2Cache_Controller.IM.Mem_Data |       24764      3.14%      3.14% |       24665      3.12%      6.26% |       24674      3.12%      9.38% |       24679      3.13%     12.51% |       24670      3.12%     15.63% |       24674      3.12%     18.76% |       24675      3.12%     21.88% |       24666      3.12%     25.01% |       24681      3.13%     28.13% |       24680      3.13%     31.26% |       24663      3.12%     34.38% |       24687      3.13%     37.50% |       24674      3.12%     40.63% |       24671      3.12%     43.75% |       24669      3.12%     46.88% |       24662      3.12%     50.00% |       24683      3.13%     53.13% |       24680      3.13%     56.25% |       24677      3.12%     59.38% |       24675      3.12%     62.50% |       24688      3.13%     65.63% |       24698      3.13%     68.75% |       24670      3.12%     71.88% |       24674      3.12%     75.00% |       24686      3.13%     78.13% |       24680      3.13%     81.25% |       24683      3.13%     84.38% |       24670      3.12%     87.50% |       24671      3.12%     90.63% |       24672      3.12%     93.75% |       24681      3.13%     96.88% |       24668      3.12%    100.00%
system.ruby.L2Cache_Controller.IM.Mem_Data::total       789710                      
system.ruby.L2Cache_Controller.SS_MB.Exclusive_Unblock |           2      4.17%      4.17% |           4      8.33%     12.50% |           5     10.42%     22.92% |           3      6.25%     29.17% |           0      0.00%     29.17% |           0      0.00%     29.17% |           0      0.00%     29.17% |           0      0.00%     29.17% |           1      2.08%     31.25% |           1      2.08%     33.33% |           0      0.00%     33.33% |           1      2.08%     35.42% |           6     12.50%     47.92% |           0      0.00%     47.92% |           2      4.17%     52.08% |           0      0.00%     52.08% |           0      0.00%     52.08% |           0      0.00%     52.08% |           7     14.58%     66.67% |           5     10.42%     77.08% |           1      2.08%     79.17% |           0      0.00%     79.17% |           0      0.00%     79.17% |           0      0.00%     79.17% |           1      2.08%     81.25% |           1      2.08%     83.33% |           1      2.08%     85.42% |           1      2.08%     87.50% |           5     10.42%     97.92% |           0      0.00%     97.92% |           1      2.08%    100.00% |           0      0.00%    100.00%
system.ruby.L2Cache_Controller.SS_MB.Exclusive_Unblock::total           48                      
system.ruby.L2Cache_Controller.MT_MB.L1_PUTX |           7    100.00%    100.00% |           0      0.00%    100.00% |           0      0.00%    100.00% |           0      0.00%    100.00% |           0      0.00%    100.00% |           0      0.00%    100.00% |           0      0.00%    100.00% |           0      0.00%    100.00% |           0      0.00%    100.00% |           0      0.00%    100.00% |           0      0.00%    100.00% |           0      0.00%    100.00% |           0      0.00%    100.00% |           0      0.00%    100.00% |           0      0.00%    100.00% |           0      0.00%    100.00% |           0      0.00%    100.00% |           0      0.00%    100.00% |           0      0.00%    100.00% |           0      0.00%    100.00% |           0      0.00%    100.00% |           0      0.00%    100.00% |           0      0.00%    100.00% |           0      0.00%    100.00% |           0      0.00%    100.00% |           0      0.00%    100.00% |           0      0.00%    100.00% |           0      0.00%    100.00% |           0      0.00%    100.00% |           0      0.00%    100.00% |           0      0.00%    100.00% |           0      0.00%    100.00%
system.ruby.L2Cache_Controller.MT_MB.L1_PUTX::total            7                      
system.ruby.L2Cache_Controller.MT_MB.Exclusive_Unblock |      171906      9.58%      9.58% |       54290      3.03%     12.61% |       49289      2.75%     15.35% |       52996      2.95%     18.31% |       53512      2.98%     21.29% |       49519      2.76%     24.05% |       45959      2.56%     26.61% |       45966      2.56%     29.17% |       51559      2.87%     32.05% |       49821      2.78%     34.82% |       54073      3.01%     37.84% |       51037      2.84%     40.68% |       48293      2.69%     43.37% |       46918      2.61%     45.99% |       47893      2.67%     48.66% |       46622      2.60%     51.26% |       50579      2.82%     54.08% |       48372      2.70%     56.77% |       49903      2.78%     59.55% |       54012      3.01%     62.56% |       54532      3.04%     65.60% |       63397      3.53%     69.14% |       58007      3.23%     72.37% |       53251      2.97%     75.34% |       53467      2.98%     78.32% |       51447      2.87%     81.18% |       52510      2.93%     84.11% |       52313      2.92%     87.03% |       55512      3.09%     90.12% |       55168      3.07%     93.20% |       63476      3.54%     96.73% |       58602      3.27%    100.00%
system.ruby.L2Cache_Controller.MT_MB.Exclusive_Unblock::total      1794201                      
system.ruby.L2Cache_Controller.MT_IIB.WB_Data |           0      0.00%      0.00% |           0      0.00%      0.00% |           1      7.14%      7.14% |           1      7.14%     14.29% |           1      7.14%     21.43% |           0      0.00%     21.43% |           1      7.14%     28.57% |           0      0.00%     28.57% |           1      7.14%     35.71% |           1      7.14%     42.86% |           1      7.14%     50.00% |           1      7.14%     57.14% |           1      7.14%     64.29% |           0      0.00%     64.29% |           1      7.14%     71.43% |           1      7.14%     78.57% |           1      7.14%     85.71% |           1      7.14%     92.86% |           1      7.14%    100.00% |           0      0.00%    100.00% |           0      0.00%    100.00% |           0      0.00%    100.00% |           0      0.00%    100.00% |           0      0.00%    100.00% |           0      0.00%    100.00% |           0      0.00%    100.00% |           0      0.00%    100.00% |           0      0.00%    100.00% |           0      0.00%    100.00% |           0      0.00%    100.00% |           0      0.00%    100.00% |           0      0.00%    100.00%
system.ruby.L2Cache_Controller.MT_IIB.WB_Data::total           14                      
system.ruby.L2Cache_Controller.MT_IIB.WB_Data_clean |           7    100.00%    100.00% |           0      0.00%    100.00% |           0      0.00%    100.00% |           0      0.00%    100.00% |           0      0.00%    100.00% |           0      0.00%    100.00% |           0      0.00%    100.00% |           0      0.00%    100.00% |           0      0.00%    100.00% |           0      0.00%    100.00% |           0      0.00%    100.00% |           0      0.00%    100.00% |           0      0.00%    100.00% |           0      0.00%    100.00% |           0      0.00%    100.00% |           0      0.00%    100.00% |           0      0.00%    100.00% |           0      0.00%    100.00% |           0      0.00%    100.00% |           0      0.00%    100.00% |           0      0.00%    100.00% |           0      0.00%    100.00% |           0      0.00%    100.00% |           0      0.00%    100.00% |           0      0.00%    100.00% |           0      0.00%    100.00% |           0      0.00%    100.00% |           0      0.00%    100.00% |           0      0.00%    100.00% |           0      0.00%    100.00% |           0      0.00%    100.00% |           0      0.00%    100.00%
system.ruby.L2Cache_Controller.MT_IIB.WB_Data_clean::total            7                      
system.ruby.L2Cache_Controller.MT_IIB.Unblock |           0      0.00%      0.00% |           0      0.00%      0.00% |           0      0.00%      0.00% |           0      0.00%      0.00% |           0      0.00%      0.00% |           0      0.00%      0.00% |           0      0.00%      0.00% |           1     50.00%     50.00% |           0      0.00%     50.00% |           0      0.00%     50.00% |           0      0.00%     50.00% |           0      0.00%     50.00% |           0      0.00%     50.00% |           1     50.00%    100.00% |           0      0.00%    100.00% |           0      0.00%    100.00% |           0      0.00%    100.00% |           0      0.00%    100.00% |           0      0.00%    100.00% |           0      0.00%    100.00% |           0      0.00%    100.00% |           0      0.00%    100.00% |           0      0.00%    100.00% |           0      0.00%    100.00% |           0      0.00%    100.00% |           0      0.00%    100.00% |           0      0.00%    100.00% |           0      0.00%    100.00% |           0      0.00%    100.00% |           0      0.00%    100.00% |           0      0.00%    100.00% |           0      0.00%    100.00%
system.ruby.L2Cache_Controller.MT_IIB.Unblock::total            2                      
system.ruby.L2Cache_Controller.MT_IB.WB_Data |           0      0.00%      0.00% |           0      0.00%      0.00% |           0      0.00%      0.00% |           0      0.00%      0.00% |           0      0.00%      0.00% |           0      0.00%      0.00% |           0      0.00%      0.00% |           1     50.00%     50.00% |           0      0.00%     50.00% |           0      0.00%     50.00% |           0      0.00%     50.00% |           0      0.00%     50.00% |           0      0.00%     50.00% |           1     50.00%    100.00% |           0      0.00%    100.00% |           0      0.00%    100.00% |           0      0.00%    100.00% |           0      0.00%    100.00% |           0      0.00%    100.00% |           0      0.00%    100.00% |           0      0.00%    100.00% |           0      0.00%    100.00% |           0      0.00%    100.00% |           0      0.00%    100.00% |           0      0.00%    100.00% |           0      0.00%    100.00% |           0      0.00%    100.00% |           0      0.00%    100.00% |           0      0.00%    100.00% |           0      0.00%    100.00% |           0      0.00%    100.00% |           0      0.00%    100.00%
system.ruby.L2Cache_Controller.MT_IB.WB_Data::total            2                      
system.ruby.L2Cache_Controller.MT_SB.Unblock |           7     33.33%     33.33% |           0      0.00%     33.33% |           1      4.76%     38.10% |           1      4.76%     42.86% |           1      4.76%     47.62% |           0      0.00%     47.62% |           1      4.76%     52.38% |           0      0.00%     52.38% |           1      4.76%     57.14% |           1      4.76%     61.90% |           1      4.76%     66.67% |           1      4.76%     71.43% |           1      4.76%     76.19% |           0      0.00%     76.19% |           1      4.76%     80.95% |           1      4.76%     85.71% |           1      4.76%     90.48% |           1      4.76%     95.24% |           1      4.76%    100.00% |           0      0.00%    100.00% |           0      0.00%    100.00% |           0      0.00%    100.00% |           0      0.00%    100.00% |           0      0.00%    100.00% |           0      0.00%    100.00% |           0      0.00%    100.00% |           0      0.00%    100.00% |           0      0.00%    100.00% |           0      0.00%    100.00% |           0      0.00%    100.00% |           0      0.00%    100.00% |           0      0.00%    100.00%
system.ruby.L2Cache_Controller.MT_SB.Unblock::total           21                      
system.ruby.SimicsNetworkPortInterface_Controller.MessageSend |       34142     11.61%     11.61% |      147017     50.00%     61.61% |       14086      4.79%     66.40% |       15490      5.27%     71.67% |       13893      4.72%     76.40% |       15352      5.22%     81.62% |       13999      4.76%     86.38% |       15460      5.26%     91.64% |       11846      4.03%     95.66% |       12749      4.34%    100.00% |           0      0.00%    100.00% |           0      0.00%    100.00% |           0      0.00%    100.00% |           0      0.00%    100.00% |           0      0.00%    100.00% |           0      0.00%    100.00% |           0      0.00%    100.00% |           0      0.00%    100.00% |           0      0.00%    100.00% |           0      0.00%    100.00% |           0      0.00%    100.00% |           0      0.00%    100.00% |           0      0.00%    100.00% |           0      0.00%    100.00% |           0      0.00%    100.00% |           0      0.00%    100.00% |           0      0.00%    100.00% |           0      0.00%    100.00% |           0      0.00%    100.00% |           0      0.00%    100.00% |           0      0.00%    100.00% |           0      0.00%    100.00%
system.ruby.SimicsNetworkPortInterface_Controller.MessageSend::total       294034                      
system.ruby.SimicsNetworkPortInterface_Controller.MessageRecv |       34142     11.61%     11.61% |      147017     50.00%     61.61% |       14086      4.79%     66.40% |       15490      5.27%     71.67% |       13893      4.72%     76.40% |       15352      5.22%     81.62% |       13999      4.76%     86.38% |       15460      5.26%     91.64% |       11846      4.03%     95.66% |       12749      4.34%    100.00% |           0      0.00%    100.00% |           0      0.00%    100.00% |           0      0.00%    100.00% |           0      0.00%    100.00% |           0      0.00%    100.00% |           0      0.00%    100.00% |           0      0.00%    100.00% |           0      0.00%    100.00% |           0      0.00%    100.00% |           0      0.00%    100.00% |           0      0.00%    100.00% |           0      0.00%    100.00% |           0      0.00%    100.00% |           0      0.00%    100.00% |           0      0.00%    100.00% |           0      0.00%    100.00% |           0      0.00%    100.00% |           0      0.00%    100.00% |           0      0.00%    100.00% |           0      0.00%    100.00% |           0      0.00%    100.00% |           0      0.00%    100.00%
system.ruby.SimicsNetworkPortInterface_Controller.MessageRecv::total       294034                      
system.ruby.SimicsNetworkPortInterface_Controller.A.MessageSend |       34142     11.61%     11.61% |      147017     50.00%     61.61% |       14086      4.79%     66.40% |       15490      5.27%     71.67% |       13893      4.72%     76.40% |       15352      5.22%     81.62% |       13999      4.76%     86.38% |       15460      5.26%     91.64% |       11846      4.03%     95.66% |       12749      4.34%    100.00% |           0      0.00%    100.00% |           0      0.00%    100.00% |           0      0.00%    100.00% |           0      0.00%    100.00% |           0      0.00%    100.00% |           0      0.00%    100.00% |           0      0.00%    100.00% |           0      0.00%    100.00% |           0      0.00%    100.00% |           0      0.00%    100.00% |           0      0.00%    100.00% |           0      0.00%    100.00% |           0      0.00%    100.00% |           0      0.00%    100.00% |           0      0.00%    100.00% |           0      0.00%    100.00% |           0      0.00%    100.00% |           0      0.00%    100.00% |           0      0.00%    100.00% |           0      0.00%    100.00% |           0      0.00%    100.00% |           0      0.00%    100.00%
system.ruby.SimicsNetworkPortInterface_Controller.A.MessageSend::total       294034                      
system.ruby.SimicsNetworkPortInterface_Controller.A.MessageRecv |       34142     11.61%     11.61% |      147017     50.00%     61.61% |       14086      4.79%     66.40% |       15490      5.27%     71.67% |       13893      4.72%     76.40% |       15352      5.22%     81.62% |       13999      4.76%     86.38% |       15460      5.26%     91.64% |       11846      4.03%     95.66% |       12749      4.34%    100.00% |           0      0.00%    100.00% |           0      0.00%    100.00% |           0      0.00%    100.00% |           0      0.00%    100.00% |           0      0.00%    100.00% |           0      0.00%    100.00% |           0      0.00%    100.00% |           0      0.00%    100.00% |           0      0.00%    100.00% |           0      0.00%    100.00% |           0      0.00%    100.00% |           0      0.00%    100.00% |           0      0.00%    100.00% |           0      0.00%    100.00% |           0      0.00%    100.00% |           0      0.00%    100.00% |           0      0.00%    100.00% |           0      0.00%    100.00% |           0      0.00%    100.00% |           0      0.00%    100.00% |           0      0.00%    100.00% |           0      0.00%    100.00%
system.ruby.SimicsNetworkPortInterface_Controller.A.MessageRecv::total       294034                      
system.switch_cpus.kern.inst.arm                    0                       # number of arm instructions executed
system.switch_cpus.kern.inst.quiesce                0                       # number of quiesce instructions executed

---------- End Simulation Statistics   ----------
