
---------- Begin Simulation Statistics ----------
sim_seconds                                  0.091863                       # Number of seconds simulated
sim_ticks                                 91863209500                       # Number of ticks simulated
final_tick                               5268031288000                       # Number of ticks from beginning of simulation (restored from checkpoints and never reset)
sim_freq                                 1000000000000                       # Frequency of simulated ticks
host_inst_rate                                  20627                       # Simulator instruction rate (inst/s)
host_op_rate                                    36576                       # Simulator op (including micro ops) rate (op/s)
host_tick_rate                               46440723                       # Simulator tick rate (ticks/s)
host_mem_usage                                5583588                       # Number of bytes of host memory used
host_seconds                                  1978.07                       # Real time elapsed on the host
sim_insts                                    40802589                       # Number of instructions simulated
sim_ops                                      72350216                       # Number of ops (including micro ops) simulated
system.voltage_domain.voltage                       1                       # Voltage in Volts
system.clk_domain.clock                           500                       # Clock period in ticks
system.mem_ctrls0.bytes_read::ruby.dir_cntrl0     21468992                       # Number of bytes read from this memory
system.mem_ctrls0.bytes_read::total          21468992                       # Number of bytes read from this memory
system.mem_ctrls0.bytes_written::ruby.dir_cntrl0     12002944                       # Number of bytes written to this memory
system.mem_ctrls0.bytes_written::total       12002944                       # Number of bytes written to this memory
system.mem_ctrls0.num_reads::ruby.dir_cntrl0       335453                       # Number of read requests responded to by this memory
system.mem_ctrls0.num_reads::total             335453                       # Number of read requests responded to by this memory
system.mem_ctrls0.num_writes::ruby.dir_cntrl0       187546                       # Number of write requests responded to by this memory
system.mem_ctrls0.num_writes::total            187546                       # Number of write requests responded to by this memory
system.mem_ctrls0.bw_read::ruby.dir_cntrl0    233706095                       # Total read bandwidth from this memory (bytes/s)
system.mem_ctrls0.bw_read::total            233706095                       # Total read bandwidth from this memory (bytes/s)
system.mem_ctrls0.bw_write::ruby.dir_cntrl0    130661056                       # Write bandwidth from this memory (bytes/s)
system.mem_ctrls0.bw_write::total           130661056                       # Write bandwidth from this memory (bytes/s)
system.mem_ctrls0.bw_total::ruby.dir_cntrl0    364367152                       # Total bandwidth to/from this memory (bytes/s)
system.mem_ctrls0.bw_total::total           364367152                       # Total bandwidth to/from this memory (bytes/s)
system.mem_ctrls0.readReqs                     335453                       # Number of read requests accepted
system.mem_ctrls0.writeReqs                    187546                       # Number of write requests accepted
system.mem_ctrls0.readBursts                   335453                       # Number of DRAM read bursts, including those serviced by the write queue
system.mem_ctrls0.writeBursts                  187546                       # Number of DRAM write bursts, including those merged in the write queue
system.mem_ctrls0.bytesReadDRAM              21465984                       # Total number of bytes read from DRAM
system.mem_ctrls0.bytesReadWrQ                   3008                       # Total number of bytes read from write queue
system.mem_ctrls0.bytesWritten               12002688                       # Total number of bytes written to DRAM
system.mem_ctrls0.bytesReadSys               21468992                       # Total read bytes from the system interface side
system.mem_ctrls0.bytesWrittenSys            12002944                       # Total written bytes from the system interface side
system.mem_ctrls0.servicedByWrQ                    47                       # Number of DRAM read bursts serviced by the write queue
system.mem_ctrls0.mergedWrBursts                    0                       # Number of DRAM write bursts merged with an existing one
system.mem_ctrls0.neitherReadNorWriteReqs            0                       # Number of requests that are neither read nor write
system.mem_ctrls0.perBankRdBursts::0            20668                       # Per bank write bursts
system.mem_ctrls0.perBankRdBursts::1            21252                       # Per bank write bursts
system.mem_ctrls0.perBankRdBursts::2            20792                       # Per bank write bursts
system.mem_ctrls0.perBankRdBursts::3            21168                       # Per bank write bursts
system.mem_ctrls0.perBankRdBursts::4            20837                       # Per bank write bursts
system.mem_ctrls0.perBankRdBursts::5            21464                       # Per bank write bursts
system.mem_ctrls0.perBankRdBursts::6            20945                       # Per bank write bursts
system.mem_ctrls0.perBankRdBursts::7            21010                       # Per bank write bursts
system.mem_ctrls0.perBankRdBursts::8            21072                       # Per bank write bursts
system.mem_ctrls0.perBankRdBursts::9            21270                       # Per bank write bursts
system.mem_ctrls0.perBankRdBursts::10           20911                       # Per bank write bursts
system.mem_ctrls0.perBankRdBursts::11           21287                       # Per bank write bursts
system.mem_ctrls0.perBankRdBursts::12           20664                       # Per bank write bursts
system.mem_ctrls0.perBankRdBursts::13           20458                       # Per bank write bursts
system.mem_ctrls0.perBankRdBursts::14           20777                       # Per bank write bursts
system.mem_ctrls0.perBankRdBursts::15           20831                       # Per bank write bursts
system.mem_ctrls0.perBankWrBursts::0            11590                       # Per bank write bursts
system.mem_ctrls0.perBankWrBursts::1            11736                       # Per bank write bursts
system.mem_ctrls0.perBankWrBursts::2            11762                       # Per bank write bursts
system.mem_ctrls0.perBankWrBursts::3            11742                       # Per bank write bursts
system.mem_ctrls0.perBankWrBursts::4            11711                       # Per bank write bursts
system.mem_ctrls0.perBankWrBursts::5            12015                       # Per bank write bursts
system.mem_ctrls0.perBankWrBursts::6            11637                       # Per bank write bursts
system.mem_ctrls0.perBankWrBursts::7            11750                       # Per bank write bursts
system.mem_ctrls0.perBankWrBursts::8            11997                       # Per bank write bursts
system.mem_ctrls0.perBankWrBursts::9            11816                       # Per bank write bursts
system.mem_ctrls0.perBankWrBursts::10           11610                       # Per bank write bursts
system.mem_ctrls0.perBankWrBursts::11           11785                       # Per bank write bursts
system.mem_ctrls0.perBankWrBursts::12           11448                       # Per bank write bursts
system.mem_ctrls0.perBankWrBursts::13           11413                       # Per bank write bursts
system.mem_ctrls0.perBankWrBursts::14           11833                       # Per bank write bursts
system.mem_ctrls0.perBankWrBursts::15           11697                       # Per bank write bursts
system.mem_ctrls0.numRdRetry                    24693                       # Number of times read queue was full causing retry
system.mem_ctrls0.numWrRetry                     4833                       # Number of times write queue was full causing retry
system.mem_ctrls0.totGap                  91862909000                       # Total gap between requests
system.mem_ctrls0.readPktSize::0                    0                       # Read request sizes (log2)
system.mem_ctrls0.readPktSize::1                    0                       # Read request sizes (log2)
system.mem_ctrls0.readPktSize::2                    0                       # Read request sizes (log2)
system.mem_ctrls0.readPktSize::3                    0                       # Read request sizes (log2)
system.mem_ctrls0.readPktSize::4                    0                       # Read request sizes (log2)
system.mem_ctrls0.readPktSize::5                    0                       # Read request sizes (log2)
system.mem_ctrls0.readPktSize::6               335453                       # Read request sizes (log2)
system.mem_ctrls0.writePktSize::0                   0                       # Write request sizes (log2)
system.mem_ctrls0.writePktSize::1                   0                       # Write request sizes (log2)
system.mem_ctrls0.writePktSize::2                   0                       # Write request sizes (log2)
system.mem_ctrls0.writePktSize::3                   0                       # Write request sizes (log2)
system.mem_ctrls0.writePktSize::4                   0                       # Write request sizes (log2)
system.mem_ctrls0.writePktSize::5                   0                       # Write request sizes (log2)
system.mem_ctrls0.writePktSize::6              187546                       # Write request sizes (log2)
system.mem_ctrls0.rdQLenPdf::0                 135376                       # What read queue length does an incoming req see
system.mem_ctrls0.rdQLenPdf::1                  18531                       # What read queue length does an incoming req see
system.mem_ctrls0.rdQLenPdf::2                  15900                       # What read queue length does an incoming req see
system.mem_ctrls0.rdQLenPdf::3                  14078                       # What read queue length does an incoming req see
system.mem_ctrls0.rdQLenPdf::4                  12996                       # What read queue length does an incoming req see
system.mem_ctrls0.rdQLenPdf::5                  11892                       # What read queue length does an incoming req see
system.mem_ctrls0.rdQLenPdf::6                  10682                       # What read queue length does an incoming req see
system.mem_ctrls0.rdQLenPdf::7                   9841                       # What read queue length does an incoming req see
system.mem_ctrls0.rdQLenPdf::8                   8451                       # What read queue length does an incoming req see
system.mem_ctrls0.rdQLenPdf::9                   7701                       # What read queue length does an incoming req see
system.mem_ctrls0.rdQLenPdf::10                  6769                       # What read queue length does an incoming req see
system.mem_ctrls0.rdQLenPdf::11                  5931                       # What read queue length does an incoming req see
system.mem_ctrls0.rdQLenPdf::12                  5337                       # What read queue length does an incoming req see
system.mem_ctrls0.rdQLenPdf::13                  4765                       # What read queue length does an incoming req see
system.mem_ctrls0.rdQLenPdf::14                  4233                       # What read queue length does an incoming req see
system.mem_ctrls0.rdQLenPdf::15                  3858                       # What read queue length does an incoming req see
system.mem_ctrls0.rdQLenPdf::16                  3448                       # What read queue length does an incoming req see
system.mem_ctrls0.rdQLenPdf::17                  3209                       # What read queue length does an incoming req see
system.mem_ctrls0.rdQLenPdf::18                  2983                       # What read queue length does an incoming req see
system.mem_ctrls0.rdQLenPdf::19                  2677                       # What read queue length does an incoming req see
system.mem_ctrls0.rdQLenPdf::20                  2406                       # What read queue length does an incoming req see
system.mem_ctrls0.rdQLenPdf::21                  2258                       # What read queue length does an incoming req see
system.mem_ctrls0.rdQLenPdf::22                  2074                       # What read queue length does an incoming req see
system.mem_ctrls0.rdQLenPdf::23                  1905                       # What read queue length does an incoming req see
system.mem_ctrls0.rdQLenPdf::24                  1795                       # What read queue length does an incoming req see
system.mem_ctrls0.rdQLenPdf::25                  1732                       # What read queue length does an incoming req see
system.mem_ctrls0.rdQLenPdf::26                  1688                       # What read queue length does an incoming req see
system.mem_ctrls0.rdQLenPdf::27                  1600                       # What read queue length does an incoming req see
system.mem_ctrls0.rdQLenPdf::28                  1515                       # What read queue length does an incoming req see
system.mem_ctrls0.rdQLenPdf::29                  1522                       # What read queue length does an incoming req see
system.mem_ctrls0.rdQLenPdf::30                  1628                       # What read queue length does an incoming req see
system.mem_ctrls0.rdQLenPdf::31                 26625                       # What read queue length does an incoming req see
system.mem_ctrls0.wrQLenPdf::0                  31084                       # What write queue length does an incoming req see
system.mem_ctrls0.wrQLenPdf::1                  33355                       # What write queue length does an incoming req see
system.mem_ctrls0.wrQLenPdf::2                  34135                       # What write queue length does an incoming req see
system.mem_ctrls0.wrQLenPdf::3                  34231                       # What write queue length does an incoming req see
system.mem_ctrls0.wrQLenPdf::4                  34170                       # What write queue length does an incoming req see
system.mem_ctrls0.wrQLenPdf::5                   6301                       # What write queue length does an incoming req see
system.mem_ctrls0.wrQLenPdf::6                   5650                       # What write queue length does an incoming req see
system.mem_ctrls0.wrQLenPdf::7                   8620                       # What write queue length does an incoming req see
system.mem_ctrls0.bytesPerActivate::samples       158715                       # Bytes accessed per row activation
system.mem_ctrls0.bytesPerActivate::mean   210.871159                       # Bytes accessed per row activation
system.mem_ctrls0.bytesPerActivate::gmean   157.531067                       # Bytes accessed per row activation
system.mem_ctrls0.bytesPerActivate::stdev   172.702500                       # Bytes accessed per row activation
system.mem_ctrls0.bytesPerActivate::0-127        53062     33.43%     33.43% # Bytes accessed per row activation
system.mem_ctrls0.bytesPerActivate::128-255        44841     28.25%     61.68% # Bytes accessed per row activation
system.mem_ctrls0.bytesPerActivate::256-383        41464     26.12%     87.81% # Bytes accessed per row activation
system.mem_ctrls0.bytesPerActivate::384-511         7206      4.54%     92.35% # Bytes accessed per row activation
system.mem_ctrls0.bytesPerActivate::512-639         7147      4.50%     96.85% # Bytes accessed per row activation
system.mem_ctrls0.bytesPerActivate::640-767         1654      1.04%     97.89% # Bytes accessed per row activation
system.mem_ctrls0.bytesPerActivate::768-895         1092      0.69%     98.58% # Bytes accessed per row activation
system.mem_ctrls0.bytesPerActivate::896-1023          877      0.55%     99.14% # Bytes accessed per row activation
system.mem_ctrls0.bytesPerActivate::1024-1151         1372      0.86%    100.00% # Bytes accessed per row activation
system.mem_ctrls0.bytesPerActivate::total       158715                       # Bytes accessed per row activation
system.mem_ctrls0.rdPerTurnAround::samples        31577                       # Reads before turning the bus around for writes
system.mem_ctrls0.rdPerTurnAround::mean     10.621370                       # Reads before turning the bus around for writes
system.mem_ctrls0.rdPerTurnAround::stdev    25.042096                       # Reads before turning the bus around for writes
system.mem_ctrls0.rdPerTurnAround::0-127        31570     99.98%     99.98% # Reads before turning the bus around for writes
system.mem_ctrls0.rdPerTurnAround::128-255            6      0.02%    100.00% # Reads before turning the bus around for writes
system.mem_ctrls0.rdPerTurnAround::3968-4095            1      0.00%    100.00% # Reads before turning the bus around for writes
system.mem_ctrls0.rdPerTurnAround::total        31577                       # Reads before turning the bus around for writes
system.mem_ctrls0.wrPerTurnAround::samples        31577                       # Writes before turning the bus around for reads
system.mem_ctrls0.wrPerTurnAround::mean      5.939196                       # Writes before turning the bus around for reads
system.mem_ctrls0.wrPerTurnAround::gmean     5.659344                       # Writes before turning the bus around for reads
system.mem_ctrls0.wrPerTurnAround::stdev     2.322351                       # Writes before turning the bus around for reads
system.mem_ctrls0.wrPerTurnAround::4-7          27453     86.94%     86.94% # Writes before turning the bus around for reads
system.mem_ctrls0.wrPerTurnAround::8-11          2549      8.07%     95.01% # Writes before turning the bus around for reads
system.mem_ctrls0.wrPerTurnAround::12-15          902      2.86%     97.87% # Writes before turning the bus around for reads
system.mem_ctrls0.wrPerTurnAround::16-19          673      2.13%    100.00% # Writes before turning the bus around for reads
system.mem_ctrls0.wrPerTurnAround::total        31577                       # Writes before turning the bus around for reads
system.mem_ctrls0.totQLat                 27545563170                       # Total ticks spent queuing
system.mem_ctrls0.totMemAccLat            33834425670                       # Total ticks spent from burst creation until serviced by the DRAM
system.mem_ctrls0.totBusLat                1677030000                       # Total ticks spent in databus transfers
system.mem_ctrls0.avgQLat                    82126.03                       # Average queueing delay per DRAM burst
system.mem_ctrls0.avgBusLat                   5000.00                       # Average bus latency per DRAM burst
system.mem_ctrls0.avgMemAccLat              100876.03                       # Average memory access latency per DRAM burst
system.mem_ctrls0.avgRdBW                      233.67                       # Average DRAM read bandwidth in MiByte/s
system.mem_ctrls0.avgWrBW                      130.66                       # Average achieved write bandwidth in MiByte/s
system.mem_ctrls0.avgRdBWSys                   233.71                       # Average system read bandwidth in MiByte/s
system.mem_ctrls0.avgWrBWSys                   130.66                       # Average system write bandwidth in MiByte/s
system.mem_ctrls0.peakBW                     12800.00                       # Theoretical peak bandwidth in MiByte/s
system.mem_ctrls0.busUtil                        2.85                       # Data bus utilization in percentage
system.mem_ctrls0.busUtilRead                    1.83                       # Data bus utilization in percentage for reads
system.mem_ctrls0.busUtilWrite                   1.02                       # Data bus utilization in percentage for writes
system.mem_ctrls0.avgRdQLen                      1.43                       # Average read queue length when enqueuing
system.mem_ctrls0.avgWrQLen                      2.98                       # Average write queue length when enqueuing
system.mem_ctrls0.readRowHits                  254518                       # Number of row buffer hits during reads
system.mem_ctrls0.writeRowHits                 109713                       # Number of row buffer hits during writes
system.mem_ctrls0.readRowHitRate                75.88                       # Row buffer hit rate for reads
system.mem_ctrls0.writeRowHitRate               58.50                       # Row buffer hit rate for writes
system.mem_ctrls0.avgGap                    175646.43                       # Average gap between requests
system.mem_ctrls0.pageHitRate                   69.65                       # Row buffer hit rate, read and write combined
system.mem_ctrls0.memoryStateTime::IDLE   15177782250                       # Time in different power states
system.mem_ctrls0.memoryStateTime::REF     3067480000                       # Time in different power states
system.mem_ctrls0.memoryStateTime::PRE_PDN            0                       # Time in different power states
system.mem_ctrls0.memoryStateTime::ACT    73617189000                       # Time in different power states
system.mem_ctrls0.memoryStateTime::ACT_PDN            0                       # Time in different power states
system.mem_ctrls0.actEnergy::0              604187640                       # Energy for activate commands per rank (pJ)
system.mem_ctrls0.actEnergy::1              595697760                       # Energy for activate commands per rank (pJ)
system.mem_ctrls0.preEnergy::0              329665875                       # Energy for precharge commands per rank (pJ)
system.mem_ctrls0.preEnergy::1              325033500                       # Energy for precharge commands per rank (pJ)
system.mem_ctrls0.readEnergy::0            1311460800                       # Energy for read commands per rank (pJ)
system.mem_ctrls0.readEnergy::1            1304674800                       # Energy for read commands per rank (pJ)
system.mem_ctrls0.writeEnergy::0            608750640                       # Energy for write commands per rank (pJ)
system.mem_ctrls0.writeEnergy::1            606521520                       # Energy for write commands per rank (pJ)
system.mem_ctrls0.refreshEnergy::0         5999990880                       # Energy for refresh commands per rank (pJ)
system.mem_ctrls0.refreshEnergy::1         5999990880                       # Energy for refresh commands per rank (pJ)
system.mem_ctrls0.actBackEnergy::0        37906740495                       # Energy for active background per rank (pJ)
system.mem_ctrls0.actBackEnergy::1        37189144980                       # Energy for active background per rank (pJ)
system.mem_ctrls0.preBackEnergy::0        21865935750                       # Energy for precharge background per rank (pJ)
system.mem_ctrls0.preBackEnergy::1        22495405500                       # Energy for precharge background per rank (pJ)
system.mem_ctrls0.totalEnergy::0          68626732080                       # Total energy per rank (pJ)
system.mem_ctrls0.totalEnergy::1          68516468940                       # Total energy per rank (pJ)
system.mem_ctrls0.averagePower::0          747.059777                       # Core power per rank (mW)
system.mem_ctrls0.averagePower::1          745.859470                       # Core power per rank (mW)
system.mem_ctrls1.bytes_read::ruby.dir_cntrl1     21068096                       # Number of bytes read from this memory
system.mem_ctrls1.bytes_read::total          21068096                       # Number of bytes read from this memory
system.mem_ctrls1.bytes_written::ruby.dir_cntrl1     11593152                       # Number of bytes written to this memory
system.mem_ctrls1.bytes_written::total       11593152                       # Number of bytes written to this memory
system.mem_ctrls1.num_reads::ruby.dir_cntrl1       329189                       # Number of read requests responded to by this memory
system.mem_ctrls1.num_reads::total             329189                       # Number of read requests responded to by this memory
system.mem_ctrls1.num_writes::ruby.dir_cntrl1       181143                       # Number of write requests responded to by this memory
system.mem_ctrls1.num_writes::total            181143                       # Number of write requests responded to by this memory
system.mem_ctrls1.bw_read::ruby.dir_cntrl1    229342041                       # Total read bandwidth from this memory (bytes/s)
system.mem_ctrls1.bw_read::total            229342041                       # Total read bandwidth from this memory (bytes/s)
system.mem_ctrls1.bw_write::ruby.dir_cntrl1    126200163                       # Write bandwidth from this memory (bytes/s)
system.mem_ctrls1.bw_write::total           126200163                       # Write bandwidth from this memory (bytes/s)
system.mem_ctrls1.bw_total::ruby.dir_cntrl1    355542204                       # Total bandwidth to/from this memory (bytes/s)
system.mem_ctrls1.bw_total::total           355542204                       # Total bandwidth to/from this memory (bytes/s)
system.mem_ctrls1.readReqs                     329189                       # Number of read requests accepted
system.mem_ctrls1.writeReqs                    181143                       # Number of write requests accepted
system.mem_ctrls1.readBursts                   329189                       # Number of DRAM read bursts, including those serviced by the write queue
system.mem_ctrls1.writeBursts                  181143                       # Number of DRAM write bursts, including those merged in the write queue
system.mem_ctrls1.bytesReadDRAM              21065600                       # Total number of bytes read from DRAM
system.mem_ctrls1.bytesReadWrQ                   2496                       # Total number of bytes read from write queue
system.mem_ctrls1.bytesWritten               11592896                       # Total number of bytes written to DRAM
system.mem_ctrls1.bytesReadSys               21068096                       # Total read bytes from the system interface side
system.mem_ctrls1.bytesWrittenSys            11593152                       # Total written bytes from the system interface side
system.mem_ctrls1.servicedByWrQ                    39                       # Number of DRAM read bursts serviced by the write queue
system.mem_ctrls1.mergedWrBursts                    0                       # Number of DRAM write bursts merged with an existing one
system.mem_ctrls1.neitherReadNorWriteReqs            0                       # Number of requests that are neither read nor write
system.mem_ctrls1.perBankRdBursts::0            20279                       # Per bank write bursts
system.mem_ctrls1.perBankRdBursts::1            20965                       # Per bank write bursts
system.mem_ctrls1.perBankRdBursts::2            20324                       # Per bank write bursts
system.mem_ctrls1.perBankRdBursts::3            20803                       # Per bank write bursts
system.mem_ctrls1.perBankRdBursts::4            20463                       # Per bank write bursts
system.mem_ctrls1.perBankRdBursts::5            21004                       # Per bank write bursts
system.mem_ctrls1.perBankRdBursts::6            20523                       # Per bank write bursts
system.mem_ctrls1.perBankRdBursts::7            20817                       # Per bank write bursts
system.mem_ctrls1.perBankRdBursts::8            20572                       # Per bank write bursts
system.mem_ctrls1.perBankRdBursts::9            20849                       # Per bank write bursts
system.mem_ctrls1.perBankRdBursts::10           20584                       # Per bank write bursts
system.mem_ctrls1.perBankRdBursts::11           20882                       # Per bank write bursts
system.mem_ctrls1.perBankRdBursts::12           20277                       # Per bank write bursts
system.mem_ctrls1.perBankRdBursts::13           20121                       # Per bank write bursts
system.mem_ctrls1.perBankRdBursts::14           20345                       # Per bank write bursts
system.mem_ctrls1.perBankRdBursts::15           20342                       # Per bank write bursts
system.mem_ctrls1.perBankWrBursts::0            11210                       # Per bank write bursts
system.mem_ctrls1.perBankWrBursts::1            11359                       # Per bank write bursts
system.mem_ctrls1.perBankWrBursts::2            11372                       # Per bank write bursts
system.mem_ctrls1.perBankWrBursts::3            11387                       # Per bank write bursts
system.mem_ctrls1.perBankWrBursts::4            11301                       # Per bank write bursts
system.mem_ctrls1.perBankWrBursts::5            11596                       # Per bank write bursts
system.mem_ctrls1.perBankWrBursts::6            11264                       # Per bank write bursts
system.mem_ctrls1.perBankWrBursts::7            11328                       # Per bank write bursts
system.mem_ctrls1.perBankWrBursts::8            11566                       # Per bank write bursts
system.mem_ctrls1.perBankWrBursts::9            11415                       # Per bank write bursts
system.mem_ctrls1.perBankWrBursts::10           11216                       # Per bank write bursts
system.mem_ctrls1.perBankWrBursts::11           11352                       # Per bank write bursts
system.mem_ctrls1.perBankWrBursts::12           11067                       # Per bank write bursts
system.mem_ctrls1.perBankWrBursts::13           11015                       # Per bank write bursts
system.mem_ctrls1.perBankWrBursts::14           11401                       # Per bank write bursts
system.mem_ctrls1.perBankWrBursts::15           11290                       # Per bank write bursts
system.mem_ctrls1.numRdRetry                    24659                       # Number of times read queue was full causing retry
system.mem_ctrls1.numWrRetry                     4577                       # Number of times write queue was full causing retry
system.mem_ctrls1.totGap                  91862345500                       # Total gap between requests
system.mem_ctrls1.readPktSize::0                    0                       # Read request sizes (log2)
system.mem_ctrls1.readPktSize::1                    0                       # Read request sizes (log2)
system.mem_ctrls1.readPktSize::2                    0                       # Read request sizes (log2)
system.mem_ctrls1.readPktSize::3                    0                       # Read request sizes (log2)
system.mem_ctrls1.readPktSize::4                    0                       # Read request sizes (log2)
system.mem_ctrls1.readPktSize::5                    0                       # Read request sizes (log2)
system.mem_ctrls1.readPktSize::6               329189                       # Read request sizes (log2)
system.mem_ctrls1.writePktSize::0                   0                       # Write request sizes (log2)
system.mem_ctrls1.writePktSize::1                   0                       # Write request sizes (log2)
system.mem_ctrls1.writePktSize::2                   0                       # Write request sizes (log2)
system.mem_ctrls1.writePktSize::3                   0                       # Write request sizes (log2)
system.mem_ctrls1.writePktSize::4                   0                       # Write request sizes (log2)
system.mem_ctrls1.writePktSize::5                   0                       # Write request sizes (log2)
system.mem_ctrls1.writePktSize::6              181143                       # Write request sizes (log2)
system.mem_ctrls1.rdQLenPdf::0                 132183                       # What read queue length does an incoming req see
system.mem_ctrls1.rdQLenPdf::1                  15704                       # What read queue length does an incoming req see
system.mem_ctrls1.rdQLenPdf::2                  15100                       # What read queue length does an incoming req see
system.mem_ctrls1.rdQLenPdf::3                  14144                       # What read queue length does an incoming req see
system.mem_ctrls1.rdQLenPdf::4                  13073                       # What read queue length does an incoming req see
system.mem_ctrls1.rdQLenPdf::5                  12058                       # What read queue length does an incoming req see
system.mem_ctrls1.rdQLenPdf::6                  10827                       # What read queue length does an incoming req see
system.mem_ctrls1.rdQLenPdf::7                   9839                       # What read queue length does an incoming req see
system.mem_ctrls1.rdQLenPdf::8                   8485                       # What read queue length does an incoming req see
system.mem_ctrls1.rdQLenPdf::9                   7703                       # What read queue length does an incoming req see
system.mem_ctrls1.rdQLenPdf::10                  6752                       # What read queue length does an incoming req see
system.mem_ctrls1.rdQLenPdf::11                  6084                       # What read queue length does an incoming req see
system.mem_ctrls1.rdQLenPdf::12                  5486                       # What read queue length does an incoming req see
system.mem_ctrls1.rdQLenPdf::13                  4863                       # What read queue length does an incoming req see
system.mem_ctrls1.rdQLenPdf::14                  4303                       # What read queue length does an incoming req see
system.mem_ctrls1.rdQLenPdf::15                  3941                       # What read queue length does an incoming req see
system.mem_ctrls1.rdQLenPdf::16                  3554                       # What read queue length does an incoming req see
system.mem_ctrls1.rdQLenPdf::17                  3103                       # What read queue length does an incoming req see
system.mem_ctrls1.rdQLenPdf::18                  2835                       # What read queue length does an incoming req see
system.mem_ctrls1.rdQLenPdf::19                  2657                       # What read queue length does an incoming req see
system.mem_ctrls1.rdQLenPdf::20                  2409                       # What read queue length does an incoming req see
system.mem_ctrls1.rdQLenPdf::21                  2181                       # What read queue length does an incoming req see
system.mem_ctrls1.rdQLenPdf::22                  2101                       # What read queue length does an incoming req see
system.mem_ctrls1.rdQLenPdf::23                  1943                       # What read queue length does an incoming req see
system.mem_ctrls1.rdQLenPdf::24                  1853                       # What read queue length does an incoming req see
system.mem_ctrls1.rdQLenPdf::25                  1711                       # What read queue length does an incoming req see
system.mem_ctrls1.rdQLenPdf::26                  1555                       # What read queue length does an incoming req see
system.mem_ctrls1.rdQLenPdf::27                  1540                       # What read queue length does an incoming req see
system.mem_ctrls1.rdQLenPdf::28                  1492                       # What read queue length does an incoming req see
system.mem_ctrls1.rdQLenPdf::29                  1525                       # What read queue length does an incoming req see
system.mem_ctrls1.rdQLenPdf::30                  1600                       # What read queue length does an incoming req see
system.mem_ctrls1.rdQLenPdf::31                 26546                       # What read queue length does an incoming req see
system.mem_ctrls1.wrQLenPdf::0                  29901                       # What write queue length does an incoming req see
system.mem_ctrls1.wrQLenPdf::1                  31982                       # What write queue length does an incoming req see
system.mem_ctrls1.wrQLenPdf::2                  32717                       # What write queue length does an incoming req see
system.mem_ctrls1.wrQLenPdf::3                  32933                       # What write queue length does an incoming req see
system.mem_ctrls1.wrQLenPdf::4                  33114                       # What write queue length does an incoming req see
system.mem_ctrls1.wrQLenPdf::5                   6482                       # What write queue length does an incoming req see
system.mem_ctrls1.wrQLenPdf::6                   5718                       # What write queue length does an incoming req see
system.mem_ctrls1.wrQLenPdf::7                   8296                       # What write queue length does an incoming req see
system.mem_ctrls1.bytesPerActivate::samples       150238                       # Bytes accessed per row activation
system.mem_ctrls1.bytesPerActivate::mean   217.375418                       # Bytes accessed per row activation
system.mem_ctrls1.bytesPerActivate::gmean   161.938523                       # Bytes accessed per row activation
system.mem_ctrls1.bytesPerActivate::stdev   176.439736                       # Bytes accessed per row activation
system.mem_ctrls1.bytesPerActivate::0-127        48963     32.59%     32.59% # Bytes accessed per row activation
system.mem_ctrls1.bytesPerActivate::128-255        40273     26.81%     59.40% # Bytes accessed per row activation
system.mem_ctrls1.bytesPerActivate::256-383        41328     27.51%     86.90% # Bytes accessed per row activation
system.mem_ctrls1.bytesPerActivate::384-511         7246      4.82%     91.73% # Bytes accessed per row activation
system.mem_ctrls1.bytesPerActivate::512-639         7342      4.89%     96.61% # Bytes accessed per row activation
system.mem_ctrls1.bytesPerActivate::640-767         1704      1.13%     97.75% # Bytes accessed per row activation
system.mem_ctrls1.bytesPerActivate::768-895         1131      0.75%     98.50% # Bytes accessed per row activation
system.mem_ctrls1.bytesPerActivate::896-1023          872      0.58%     99.08% # Bytes accessed per row activation
system.mem_ctrls1.bytesPerActivate::1024-1151         1379      0.92%    100.00% # Bytes accessed per row activation
system.mem_ctrls1.bytesPerActivate::total       150238                       # Bytes accessed per row activation
system.mem_ctrls1.rdPerTurnAround::samples        30426                       # Reads before turning the bus around for writes
system.mem_ctrls1.rdPerTurnAround::mean     10.817492                       # Reads before turning the bus around for writes
system.mem_ctrls1.rdPerTurnAround::stdev    21.128135                       # Reads before turning the bus around for writes
system.mem_ctrls1.rdPerTurnAround::0-127        30420     99.98%     99.98% # Reads before turning the bus around for writes
system.mem_ctrls1.rdPerTurnAround::128-255            4      0.01%     99.99% # Reads before turning the bus around for writes
system.mem_ctrls1.rdPerTurnAround::1152-1279            1      0.00%    100.00% # Reads before turning the bus around for writes
system.mem_ctrls1.rdPerTurnAround::2816-2943            1      0.00%    100.00% # Reads before turning the bus around for writes
system.mem_ctrls1.rdPerTurnAround::total        30426                       # Reads before turning the bus around for writes
system.mem_ctrls1.wrPerTurnAround::samples        30426                       # Writes before turning the bus around for reads
system.mem_ctrls1.wrPerTurnAround::mean      5.953428                       # Writes before turning the bus around for reads
system.mem_ctrls1.wrPerTurnAround::gmean     5.663620                       # Writes before turning the bus around for reads
system.mem_ctrls1.wrPerTurnAround::stdev     2.370644                       # Writes before turning the bus around for reads
system.mem_ctrls1.wrPerTurnAround::4-7          26418     86.83%     86.83% # Writes before turning the bus around for reads
system.mem_ctrls1.wrPerTurnAround::8-11          2383      7.83%     94.66% # Writes before turning the bus around for reads
system.mem_ctrls1.wrPerTurnAround::12-15          941      3.09%     97.75% # Writes before turning the bus around for reads
system.mem_ctrls1.wrPerTurnAround::16-19          684      2.25%    100.00% # Writes before turning the bus around for reads
system.mem_ctrls1.wrPerTurnAround::total        30426                       # Writes before turning the bus around for reads
system.mem_ctrls1.totQLat                 27151903795                       # Total ticks spent queuing
system.mem_ctrls1.totMemAccLat            33323466295                       # Total ticks spent from burst creation until serviced by the DRAM
system.mem_ctrls1.totBusLat                1645750000                       # Total ticks spent in databus transfers
system.mem_ctrls1.avgQLat                    82490.97                       # Average queueing delay per DRAM burst
system.mem_ctrls1.avgBusLat                   5000.00                       # Average bus latency per DRAM burst
system.mem_ctrls1.avgMemAccLat              101240.97                       # Average memory access latency per DRAM burst
system.mem_ctrls1.avgRdBW                      229.31                       # Average DRAM read bandwidth in MiByte/s
system.mem_ctrls1.avgWrBW                      126.20                       # Average achieved write bandwidth in MiByte/s
system.mem_ctrls1.avgRdBWSys                   229.34                       # Average system read bandwidth in MiByte/s
system.mem_ctrls1.avgWrBWSys                   126.20                       # Average system write bandwidth in MiByte/s
system.mem_ctrls1.peakBW                     12800.00                       # Theoretical peak bandwidth in MiByte/s
system.mem_ctrls1.busUtil                        2.78                       # Data bus utilization in percentage
system.mem_ctrls1.busUtilRead                    1.79                       # Data bus utilization in percentage for reads
system.mem_ctrls1.busUtilWrite                   0.99                       # Data bus utilization in percentage for writes
system.mem_ctrls1.avgRdQLen                      1.41                       # Average read queue length when enqueuing
system.mem_ctrls1.avgWrQLen                      2.99                       # Average write queue length when enqueuing
system.mem_ctrls1.readRowHits                  251546                       # Number of row buffer hits during reads
system.mem_ctrls1.writeRowHits                 108501                       # Number of row buffer hits during writes
system.mem_ctrls1.readRowHitRate                76.42                       # Row buffer hit rate for reads
system.mem_ctrls1.writeRowHitRate               59.90                       # Row buffer hit rate for writes
system.mem_ctrls1.avgGap                    180005.07                       # Average gap between requests
system.mem_ctrls1.pageHitRate                   70.56                       # Row buffer hit rate, read and write combined
system.mem_ctrls1.memoryStateTime::IDLE   15376797500                       # Time in different power states
system.mem_ctrls1.memoryStateTime::REF     3067480000                       # Time in different power states
system.mem_ctrls1.memoryStateTime::PRE_PDN            0                       # Time in different power states
system.mem_ctrls1.memoryStateTime::ACT    73418271000                       # Time in different power states
system.mem_ctrls1.memoryStateTime::ACT_PDN            0                       # Time in different power states
system.mem_ctrls1.actEnergy::0              572571720                       # Energy for activate commands per rank (pJ)
system.mem_ctrls1.actEnergy::1              563227560                       # Energy for activate commands per rank (pJ)
system.mem_ctrls1.preEnergy::0              312415125                       # Energy for precharge commands per rank (pJ)
system.mem_ctrls1.preEnergy::1              307316625                       # Energy for precharge commands per rank (pJ)
system.mem_ctrls1.readEnergy::0            1288365000                       # Energy for read commands per rank (pJ)
system.mem_ctrls1.readEnergy::1            1278950400                       # Energy for read commands per rank (pJ)
system.mem_ctrls1.writeEnergy::0            588494160                       # Energy for write commands per rank (pJ)
system.mem_ctrls1.writeEnergy::1            585286560                       # Energy for write commands per rank (pJ)
system.mem_ctrls1.refreshEnergy::0         5999990880                       # Energy for refresh commands per rank (pJ)
system.mem_ctrls1.refreshEnergy::1         5999990880                       # Energy for refresh commands per rank (pJ)
system.mem_ctrls1.actBackEnergy::0        37396510695                       # Energy for active background per rank (pJ)
system.mem_ctrls1.actBackEnergy::1        36441178155                       # Energy for active background per rank (pJ)
system.mem_ctrls1.preBackEnergy::0        22313505750                       # Energy for precharge background per rank (pJ)
system.mem_ctrls1.preBackEnergy::1        23151516750                       # Energy for precharge background per rank (pJ)
system.mem_ctrls1.totalEnergy::0          68471853330                       # Total energy per rank (pJ)
system.mem_ctrls1.totalEnergy::1          68327466930                       # Total energy per rank (pJ)
system.mem_ctrls1.averagePower::0          745.373791                       # Core power per rank (mW)
system.mem_ctrls1.averagePower::1          743.802024                       # Core power per rank (mW)
system.mem_ctrls2.bytes_read::ruby.dir_cntrl2     21051712                       # Number of bytes read from this memory
system.mem_ctrls2.bytes_read::total          21051712                       # Number of bytes read from this memory
system.mem_ctrls2.bytes_written::ruby.dir_cntrl2     11585984                       # Number of bytes written to this memory
system.mem_ctrls2.bytes_written::total       11585984                       # Number of bytes written to this memory
system.mem_ctrls2.num_reads::ruby.dir_cntrl2       328933                       # Number of read requests responded to by this memory
system.mem_ctrls2.num_reads::total             328933                       # Number of read requests responded to by this memory
system.mem_ctrls2.num_writes::ruby.dir_cntrl2       181031                       # Number of write requests responded to by this memory
system.mem_ctrls2.num_writes::total            181031                       # Number of write requests responded to by this memory
system.mem_ctrls2.bw_read::ruby.dir_cntrl2    229163689                       # Total read bandwidth from this memory (bytes/s)
system.mem_ctrls2.bw_read::total            229163689                       # Total read bandwidth from this memory (bytes/s)
system.mem_ctrls2.bw_write::ruby.dir_cntrl2    126122134                       # Write bandwidth from this memory (bytes/s)
system.mem_ctrls2.bw_write::total           126122134                       # Write bandwidth from this memory (bytes/s)
system.mem_ctrls2.bw_total::ruby.dir_cntrl2    355285823                       # Total bandwidth to/from this memory (bytes/s)
system.mem_ctrls2.bw_total::total           355285823                       # Total bandwidth to/from this memory (bytes/s)
system.mem_ctrls2.readReqs                     328934                       # Number of read requests accepted
system.mem_ctrls2.writeReqs                    181031                       # Number of write requests accepted
system.mem_ctrls2.readBursts                   328934                       # Number of DRAM read bursts, including those serviced by the write queue
system.mem_ctrls2.writeBursts                  181031                       # Number of DRAM write bursts, including those merged in the write queue
system.mem_ctrls2.bytesReadDRAM              21049920                       # Total number of bytes read from DRAM
system.mem_ctrls2.bytesReadWrQ                   1856                       # Total number of bytes read from write queue
system.mem_ctrls2.bytesWritten               11585984                       # Total number of bytes written to DRAM
system.mem_ctrls2.bytesReadSys               21051776                       # Total read bytes from the system interface side
system.mem_ctrls2.bytesWrittenSys            11585984                       # Total written bytes from the system interface side
system.mem_ctrls2.servicedByWrQ                    29                       # Number of DRAM read bursts serviced by the write queue
system.mem_ctrls2.mergedWrBursts                    0                       # Number of DRAM write bursts merged with an existing one
system.mem_ctrls2.neitherReadNorWriteReqs            0                       # Number of requests that are neither read nor write
system.mem_ctrls2.perBankRdBursts::0            20278                       # Per bank write bursts
system.mem_ctrls2.perBankRdBursts::1            20893                       # Per bank write bursts
system.mem_ctrls2.perBankRdBursts::2            20388                       # Per bank write bursts
system.mem_ctrls2.perBankRdBursts::3            20779                       # Per bank write bursts
system.mem_ctrls2.perBankRdBursts::4            20474                       # Per bank write bursts
system.mem_ctrls2.perBankRdBursts::5            20990                       # Per bank write bursts
system.mem_ctrls2.perBankRdBursts::6            20542                       # Per bank write bursts
system.mem_ctrls2.perBankRdBursts::7            20670                       # Per bank write bursts
system.mem_ctrls2.perBankRdBursts::8            20537                       # Per bank write bursts
system.mem_ctrls2.perBankRdBursts::9            20810                       # Per bank write bursts
system.mem_ctrls2.perBankRdBursts::10           20567                       # Per bank write bursts
system.mem_ctrls2.perBankRdBursts::11           20932                       # Per bank write bursts
system.mem_ctrls2.perBankRdBursts::12           20287                       # Per bank write bursts
system.mem_ctrls2.perBankRdBursts::13           20054                       # Per bank write bursts
system.mem_ctrls2.perBankRdBursts::14           20322                       # Per bank write bursts
system.mem_ctrls2.perBankRdBursts::15           20382                       # Per bank write bursts
system.mem_ctrls2.perBankWrBursts::0            11211                       # Per bank write bursts
system.mem_ctrls2.perBankWrBursts::1            11352                       # Per bank write bursts
system.mem_ctrls2.perBankWrBursts::2            11341                       # Per bank write bursts
system.mem_ctrls2.perBankWrBursts::3            11354                       # Per bank write bursts
system.mem_ctrls2.perBankWrBursts::4            11328                       # Per bank write bursts
system.mem_ctrls2.perBankWrBursts::5            11549                       # Per bank write bursts
system.mem_ctrls2.perBankWrBursts::6            11271                       # Per bank write bursts
system.mem_ctrls2.perBankWrBursts::7            11344                       # Per bank write bursts
system.mem_ctrls2.perBankWrBursts::8            11536                       # Per bank write bursts
system.mem_ctrls2.perBankWrBursts::9            11387                       # Per bank write bursts
system.mem_ctrls2.perBankWrBursts::10           11223                       # Per bank write bursts
system.mem_ctrls2.perBankWrBursts::11           11377                       # Per bank write bursts
system.mem_ctrls2.perBankWrBursts::12           11092                       # Per bank write bursts
system.mem_ctrls2.perBankWrBursts::13           10991                       # Per bank write bursts
system.mem_ctrls2.perBankWrBursts::14           11407                       # Per bank write bursts
system.mem_ctrls2.perBankWrBursts::15           11268                       # Per bank write bursts
system.mem_ctrls2.numRdRetry                    25611                       # Number of times read queue was full causing retry
system.mem_ctrls2.numWrRetry                     4859                       # Number of times write queue was full causing retry
system.mem_ctrls2.totGap                  91863181500                       # Total gap between requests
system.mem_ctrls2.readPktSize::0                    0                       # Read request sizes (log2)
system.mem_ctrls2.readPktSize::1                    0                       # Read request sizes (log2)
system.mem_ctrls2.readPktSize::2                    0                       # Read request sizes (log2)
system.mem_ctrls2.readPktSize::3                    0                       # Read request sizes (log2)
system.mem_ctrls2.readPktSize::4                    0                       # Read request sizes (log2)
system.mem_ctrls2.readPktSize::5                    0                       # Read request sizes (log2)
system.mem_ctrls2.readPktSize::6               328934                       # Read request sizes (log2)
system.mem_ctrls2.writePktSize::0                   0                       # Write request sizes (log2)
system.mem_ctrls2.writePktSize::1                   0                       # Write request sizes (log2)
system.mem_ctrls2.writePktSize::2                   0                       # Write request sizes (log2)
system.mem_ctrls2.writePktSize::3                   0                       # Write request sizes (log2)
system.mem_ctrls2.writePktSize::4                   0                       # Write request sizes (log2)
system.mem_ctrls2.writePktSize::5                   0                       # Write request sizes (log2)
system.mem_ctrls2.writePktSize::6              181031                       # Write request sizes (log2)
system.mem_ctrls2.rdQLenPdf::0                 132252                       # What read queue length does an incoming req see
system.mem_ctrls2.rdQLenPdf::1                  15513                       # What read queue length does an incoming req see
system.mem_ctrls2.rdQLenPdf::2                  14936                       # What read queue length does an incoming req see
system.mem_ctrls2.rdQLenPdf::3                  14137                       # What read queue length does an incoming req see
system.mem_ctrls2.rdQLenPdf::4                  12873                       # What read queue length does an incoming req see
system.mem_ctrls2.rdQLenPdf::5                  12117                       # What read queue length does an incoming req see
system.mem_ctrls2.rdQLenPdf::6                  10831                       # What read queue length does an incoming req see
system.mem_ctrls2.rdQLenPdf::7                   9825                       # What read queue length does an incoming req see
system.mem_ctrls2.rdQLenPdf::8                   8339                       # What read queue length does an incoming req see
system.mem_ctrls2.rdQLenPdf::9                   7608                       # What read queue length does an incoming req see
system.mem_ctrls2.rdQLenPdf::10                  6814                       # What read queue length does an incoming req see
system.mem_ctrls2.rdQLenPdf::11                  5995                       # What read queue length does an incoming req see
system.mem_ctrls2.rdQLenPdf::12                  5472                       # What read queue length does an incoming req see
system.mem_ctrls2.rdQLenPdf::13                  4848                       # What read queue length does an incoming req see
system.mem_ctrls2.rdQLenPdf::14                  4338                       # What read queue length does an incoming req see
system.mem_ctrls2.rdQLenPdf::15                  3855                       # What read queue length does an incoming req see
system.mem_ctrls2.rdQLenPdf::16                  3520                       # What read queue length does an incoming req see
system.mem_ctrls2.rdQLenPdf::17                  3105                       # What read queue length does an incoming req see
system.mem_ctrls2.rdQLenPdf::18                  2776                       # What read queue length does an incoming req see
system.mem_ctrls2.rdQLenPdf::19                  2548                       # What read queue length does an incoming req see
system.mem_ctrls2.rdQLenPdf::20                  2336                       # What read queue length does an incoming req see
system.mem_ctrls2.rdQLenPdf::21                  2156                       # What read queue length does an incoming req see
system.mem_ctrls2.rdQLenPdf::22                  2054                       # What read queue length does an incoming req see
system.mem_ctrls2.rdQLenPdf::23                  1953                       # What read queue length does an incoming req see
system.mem_ctrls2.rdQLenPdf::24                  1840                       # What read queue length does an incoming req see
system.mem_ctrls2.rdQLenPdf::25                  1672                       # What read queue length does an incoming req see
system.mem_ctrls2.rdQLenPdf::26                  1567                       # What read queue length does an incoming req see
system.mem_ctrls2.rdQLenPdf::27                  1596                       # What read queue length does an incoming req see
system.mem_ctrls2.rdQLenPdf::28                  1516                       # What read queue length does an incoming req see
system.mem_ctrls2.rdQLenPdf::29                  1532                       # What read queue length does an incoming req see
system.mem_ctrls2.rdQLenPdf::30                  1542                       # What read queue length does an incoming req see
system.mem_ctrls2.rdQLenPdf::31                 27439                       # What read queue length does an incoming req see
system.mem_ctrls2.wrQLenPdf::0                  29874                       # What write queue length does an incoming req see
system.mem_ctrls2.wrQLenPdf::1                  31884                       # What write queue length does an incoming req see
system.mem_ctrls2.wrQLenPdf::2                  32673                       # What write queue length does an incoming req see
system.mem_ctrls2.wrQLenPdf::3                  32905                       # What write queue length does an incoming req see
system.mem_ctrls2.wrQLenPdf::4                  32925                       # What write queue length does an incoming req see
system.mem_ctrls2.wrQLenPdf::5                   6409                       # What write queue length does an incoming req see
system.mem_ctrls2.wrQLenPdf::6                   5744                       # What write queue length does an incoming req see
system.mem_ctrls2.wrQLenPdf::7                   8617                       # What write queue length does an incoming req see
system.mem_ctrls2.bytesPerActivate::samples       150255                       # Bytes accessed per row activation
system.mem_ctrls2.bytesPerActivate::mean   217.200466                       # Bytes accessed per row activation
system.mem_ctrls2.bytesPerActivate::gmean   161.933378                       # Bytes accessed per row activation
system.mem_ctrls2.bytesPerActivate::stdev   175.704368                       # Bytes accessed per row activation
system.mem_ctrls2.bytesPerActivate::0-127        49055     32.65%     32.65% # Bytes accessed per row activation
system.mem_ctrls2.bytesPerActivate::128-255        39901     26.56%     59.20% # Bytes accessed per row activation
system.mem_ctrls2.bytesPerActivate::256-383        41657     27.72%     86.93% # Bytes accessed per row activation
system.mem_ctrls2.bytesPerActivate::384-511         7223      4.81%     91.73% # Bytes accessed per row activation
system.mem_ctrls2.bytesPerActivate::512-639         7414      4.93%     96.67% # Bytes accessed per row activation
system.mem_ctrls2.bytesPerActivate::640-767         1726      1.15%     97.82% # Bytes accessed per row activation
system.mem_ctrls2.bytesPerActivate::768-895         1111      0.74%     98.56% # Bytes accessed per row activation
system.mem_ctrls2.bytesPerActivate::896-1023          806      0.54%     99.09% # Bytes accessed per row activation
system.mem_ctrls2.bytesPerActivate::1024-1151         1362      0.91%    100.00% # Bytes accessed per row activation
system.mem_ctrls2.bytesPerActivate::total       150255                       # Bytes accessed per row activation
system.mem_ctrls2.rdPerTurnAround::samples        30366                       # Reads before turning the bus around for writes
system.mem_ctrls2.rdPerTurnAround::mean     10.831292                       # Reads before turning the bus around for writes
system.mem_ctrls2.rdPerTurnAround::stdev    21.178643                       # Reads before turning the bus around for writes
system.mem_ctrls2.rdPerTurnAround::0-127        30361     99.98%     99.98% # Reads before turning the bus around for writes
system.mem_ctrls2.rdPerTurnAround::128-255            3      0.01%     99.99% # Reads before turning the bus around for writes
system.mem_ctrls2.rdPerTurnAround::1152-1279            1      0.00%    100.00% # Reads before turning the bus around for writes
system.mem_ctrls2.rdPerTurnAround::2816-2943            1      0.00%    100.00% # Reads before turning the bus around for writes
system.mem_ctrls2.rdPerTurnAround::total        30366                       # Reads before turning the bus around for writes
system.mem_ctrls2.wrPerTurnAround::samples        30366                       # Writes before turning the bus around for reads
system.mem_ctrls2.wrPerTurnAround::mean      5.961635                       # Writes before turning the bus around for reads
system.mem_ctrls2.wrPerTurnAround::gmean     5.669675                       # Writes before turning the bus around for reads
system.mem_ctrls2.wrPerTurnAround::stdev     2.374090                       # Writes before turning the bus around for reads
system.mem_ctrls2.wrPerTurnAround::4-7          26235     86.40%     86.40% # Writes before turning the bus around for reads
system.mem_ctrls2.wrPerTurnAround::8-11          2499      8.23%     94.63% # Writes before turning the bus around for reads
system.mem_ctrls2.wrPerTurnAround::12-15          969      3.19%     97.82% # Writes before turning the bus around for reads
system.mem_ctrls2.wrPerTurnAround::16-19          663      2.18%    100.00% # Writes before turning the bus around for reads
system.mem_ctrls2.wrPerTurnAround::total        30366                       # Writes before turning the bus around for reads
system.mem_ctrls2.totQLat                 27591403316                       # Total ticks spent queuing
system.mem_ctrls2.totMemAccLat            33758372066                       # Total ticks spent from burst creation until serviced by the DRAM
system.mem_ctrls2.totBusLat                1644525000                       # Total ticks spent in databus transfers
system.mem_ctrls2.avgQLat                    83888.67                       # Average queueing delay per DRAM burst
system.mem_ctrls2.avgBusLat                   5000.00                       # Average bus latency per DRAM burst
system.mem_ctrls2.avgMemAccLat              102638.67                       # Average memory access latency per DRAM burst
system.mem_ctrls2.avgRdBW                      229.14                       # Average DRAM read bandwidth in MiByte/s
system.mem_ctrls2.avgWrBW                      126.12                       # Average achieved write bandwidth in MiByte/s
system.mem_ctrls2.avgRdBWSys                   229.16                       # Average system read bandwidth in MiByte/s
system.mem_ctrls2.avgWrBWSys                   126.12                       # Average system write bandwidth in MiByte/s
system.mem_ctrls2.peakBW                     12800.00                       # Theoretical peak bandwidth in MiByte/s
system.mem_ctrls2.busUtil                        2.78                       # Data bus utilization in percentage
system.mem_ctrls2.busUtilRead                    1.79                       # Data bus utilization in percentage for reads
system.mem_ctrls2.busUtilWrite                   0.99                       # Data bus utilization in percentage for writes
system.mem_ctrls2.avgRdQLen                      1.42                       # Average read queue length when enqueuing
system.mem_ctrls2.avgWrQLen                      2.99                       # Average write queue length when enqueuing
system.mem_ctrls2.readRowHits                  251344                       # Number of row buffer hits during reads
system.mem_ctrls2.writeRowHits                 108331                       # Number of row buffer hits during writes
system.mem_ctrls2.readRowHitRate                76.42                       # Row buffer hit rate for reads
system.mem_ctrls2.writeRowHitRate               59.84                       # Row buffer hit rate for writes
system.mem_ctrls2.avgGap                    180136.25                       # Average gap between requests
system.mem_ctrls2.pageHitRate                   70.53                       # Row buffer hit rate, read and write combined
system.mem_ctrls2.memoryStateTime::IDLE   15425712000                       # Time in different power states
system.mem_ctrls2.memoryStateTime::REF     3067480000                       # Time in different power states
system.mem_ctrls2.memoryStateTime::PRE_PDN            0                       # Time in different power states
system.mem_ctrls2.memoryStateTime::ACT    73369276000                       # Time in different power states
system.mem_ctrls2.memoryStateTime::ACT_PDN            0                       # Time in different power states
system.mem_ctrls2.actEnergy::0              573531840                       # Energy for activate commands per rank (pJ)
system.mem_ctrls2.actEnergy::1              562380840                       # Energy for activate commands per rank (pJ)
system.mem_ctrls2.preEnergy::0              312939000                       # Energy for precharge commands per rank (pJ)
system.mem_ctrls2.preEnergy::1              306854625                       # Energy for precharge commands per rank (pJ)
system.mem_ctrls2.readEnergy::0            1287078000                       # Energy for read commands per rank (pJ)
system.mem_ctrls2.readEnergy::1            1278349800                       # Energy for read commands per rank (pJ)
system.mem_ctrls2.writeEnergy::0            588040560                       # Energy for write commands per rank (pJ)
system.mem_ctrls2.writeEnergy::1            585007920                       # Energy for write commands per rank (pJ)
system.mem_ctrls2.refreshEnergy::0         5999990880                       # Energy for refresh commands per rank (pJ)
system.mem_ctrls2.refreshEnergy::1         5999990880                       # Energy for refresh commands per rank (pJ)
system.mem_ctrls2.actBackEnergy::0        37289569860                       # Energy for active background per rank (pJ)
system.mem_ctrls2.actBackEnergy::1        36370623555                       # Energy for active background per rank (pJ)
system.mem_ctrls2.preBackEnergy::0        22407324000                       # Energy for precharge background per rank (pJ)
system.mem_ctrls2.preBackEnergy::1        23213417250                       # Energy for precharge background per rank (pJ)
system.mem_ctrls2.totalEnergy::0          68458474140                       # Total energy per rank (pJ)
system.mem_ctrls2.totalEnergy::1          68316624870                       # Total energy per rank (pJ)
system.mem_ctrls2.averagePower::0          745.228006                       # Core power per rank (mW)
system.mem_ctrls2.averagePower::1          743.683857                       # Core power per rank (mW)
system.mem_ctrls3.bytes_read::ruby.dir_cntrl3     21040384                       # Number of bytes read from this memory
system.mem_ctrls3.bytes_read::total          21040384                       # Number of bytes read from this memory
system.mem_ctrls3.bytes_written::ruby.dir_cntrl3     11589824                       # Number of bytes written to this memory
system.mem_ctrls3.bytes_written::total       11589824                       # Number of bytes written to this memory
system.mem_ctrls3.num_reads::ruby.dir_cntrl3       328756                       # Number of read requests responded to by this memory
system.mem_ctrls3.num_reads::total             328756                       # Number of read requests responded to by this memory
system.mem_ctrls3.num_writes::ruby.dir_cntrl3       181091                       # Number of write requests responded to by this memory
system.mem_ctrls3.num_writes::total            181091                       # Number of write requests responded to by this memory
system.mem_ctrls3.bw_read::ruby.dir_cntrl3    229040376                       # Total read bandwidth from this memory (bytes/s)
system.mem_ctrls3.bw_read::total            229040376                       # Total read bandwidth from this memory (bytes/s)
system.mem_ctrls3.bw_write::ruby.dir_cntrl3    126163935                       # Write bandwidth from this memory (bytes/s)
system.mem_ctrls3.bw_write::total           126163935                       # Write bandwidth from this memory (bytes/s)
system.mem_ctrls3.bw_total::ruby.dir_cntrl3    355204311                       # Total bandwidth to/from this memory (bytes/s)
system.mem_ctrls3.bw_total::total           355204311                       # Total bandwidth to/from this memory (bytes/s)
system.mem_ctrls3.readReqs                     328758                       # Number of read requests accepted
system.mem_ctrls3.writeReqs                    181091                       # Number of write requests accepted
system.mem_ctrls3.readBursts                   328758                       # Number of DRAM read bursts, including those serviced by the write queue
system.mem_ctrls3.writeBursts                  181091                       # Number of DRAM write bursts, including those merged in the write queue
system.mem_ctrls3.bytesReadDRAM              21039232                       # Total number of bytes read from DRAM
system.mem_ctrls3.bytesReadWrQ                   1280                       # Total number of bytes read from write queue
system.mem_ctrls3.bytesWritten               11589824                       # Total number of bytes written to DRAM
system.mem_ctrls3.bytesReadSys               21040512                       # Total read bytes from the system interface side
system.mem_ctrls3.bytesWrittenSys            11589824                       # Total written bytes from the system interface side
system.mem_ctrls3.servicedByWrQ                    20                       # Number of DRAM read bursts serviced by the write queue
system.mem_ctrls3.mergedWrBursts                    0                       # Number of DRAM write bursts merged with an existing one
system.mem_ctrls3.neitherReadNorWriteReqs            0                       # Number of requests that are neither read nor write
system.mem_ctrls3.perBankRdBursts::0            20327                       # Per bank write bursts
system.mem_ctrls3.perBankRdBursts::1            20806                       # Per bank write bursts
system.mem_ctrls3.perBankRdBursts::2            20366                       # Per bank write bursts
system.mem_ctrls3.perBankRdBursts::3            20748                       # Per bank write bursts
system.mem_ctrls3.perBankRdBursts::4            20380                       # Per bank write bursts
system.mem_ctrls3.perBankRdBursts::5            20961                       # Per bank write bursts
system.mem_ctrls3.perBankRdBursts::6            20617                       # Per bank write bursts
system.mem_ctrls3.perBankRdBursts::7            20630                       # Per bank write bursts
system.mem_ctrls3.perBankRdBursts::8            20575                       # Per bank write bursts
system.mem_ctrls3.perBankRdBursts::9            20803                       # Per bank write bursts
system.mem_ctrls3.perBankRdBursts::10           20585                       # Per bank write bursts
system.mem_ctrls3.perBankRdBursts::11           20820                       # Per bank write bursts
system.mem_ctrls3.perBankRdBursts::12           20317                       # Per bank write bursts
system.mem_ctrls3.perBankRdBursts::13           20129                       # Per bank write bursts
system.mem_ctrls3.perBankRdBursts::14           20302                       # Per bank write bursts
system.mem_ctrls3.perBankRdBursts::15           20372                       # Per bank write bursts
system.mem_ctrls3.perBankWrBursts::0            11206                       # Per bank write bursts
system.mem_ctrls3.perBankWrBursts::1            11312                       # Per bank write bursts
system.mem_ctrls3.perBankWrBursts::2            11387                       # Per bank write bursts
system.mem_ctrls3.perBankWrBursts::3            11368                       # Per bank write bursts
system.mem_ctrls3.perBankWrBursts::4            11313                       # Per bank write bursts
system.mem_ctrls3.perBankWrBursts::5            11600                       # Per bank write bursts
system.mem_ctrls3.perBankWrBursts::6            11230                       # Per bank write bursts
system.mem_ctrls3.perBankWrBursts::7            11317                       # Per bank write bursts
system.mem_ctrls3.perBankWrBursts::8            11539                       # Per bank write bursts
system.mem_ctrls3.perBankWrBursts::9            11401                       # Per bank write bursts
system.mem_ctrls3.perBankWrBursts::10           11207                       # Per bank write bursts
system.mem_ctrls3.perBankWrBursts::11           11404                       # Per bank write bursts
system.mem_ctrls3.perBankWrBursts::12           11113                       # Per bank write bursts
system.mem_ctrls3.perBankWrBursts::13           11031                       # Per bank write bursts
system.mem_ctrls3.perBankWrBursts::14           11380                       # Per bank write bursts
system.mem_ctrls3.perBankWrBursts::15           11283                       # Per bank write bursts
system.mem_ctrls3.numRdRetry                    25303                       # Number of times read queue was full causing retry
system.mem_ctrls3.numWrRetry                     4771                       # Number of times write queue was full causing retry
system.mem_ctrls3.totGap                  91862465500                       # Total gap between requests
system.mem_ctrls3.readPktSize::0                    0                       # Read request sizes (log2)
system.mem_ctrls3.readPktSize::1                    0                       # Read request sizes (log2)
system.mem_ctrls3.readPktSize::2                    0                       # Read request sizes (log2)
system.mem_ctrls3.readPktSize::3                    0                       # Read request sizes (log2)
system.mem_ctrls3.readPktSize::4                    0                       # Read request sizes (log2)
system.mem_ctrls3.readPktSize::5                    0                       # Read request sizes (log2)
system.mem_ctrls3.readPktSize::6               328758                       # Read request sizes (log2)
system.mem_ctrls3.writePktSize::0                   0                       # Write request sizes (log2)
system.mem_ctrls3.writePktSize::1                   0                       # Write request sizes (log2)
system.mem_ctrls3.writePktSize::2                   0                       # Write request sizes (log2)
system.mem_ctrls3.writePktSize::3                   0                       # Write request sizes (log2)
system.mem_ctrls3.writePktSize::4                   0                       # Write request sizes (log2)
system.mem_ctrls3.writePktSize::5                   0                       # Write request sizes (log2)
system.mem_ctrls3.writePktSize::6              181091                       # Write request sizes (log2)
system.mem_ctrls3.rdQLenPdf::0                 132173                       # What read queue length does an incoming req see
system.mem_ctrls3.rdQLenPdf::1                  15726                       # What read queue length does an incoming req see
system.mem_ctrls3.rdQLenPdf::2                  15073                       # What read queue length does an incoming req see
system.mem_ctrls3.rdQLenPdf::3                  14138                       # What read queue length does an incoming req see
system.mem_ctrls3.rdQLenPdf::4                  12903                       # What read queue length does an incoming req see
system.mem_ctrls3.rdQLenPdf::5                  11915                       # What read queue length does an incoming req see
system.mem_ctrls3.rdQLenPdf::6                  10770                       # What read queue length does an incoming req see
system.mem_ctrls3.rdQLenPdf::7                   9554                       # What read queue length does an incoming req see
system.mem_ctrls3.rdQLenPdf::8                   8252                       # What read queue length does an incoming req see
system.mem_ctrls3.rdQLenPdf::9                   7406                       # What read queue length does an incoming req see
system.mem_ctrls3.rdQLenPdf::10                  6704                       # What read queue length does an incoming req see
system.mem_ctrls3.rdQLenPdf::11                  5901                       # What read queue length does an incoming req see
system.mem_ctrls3.rdQLenPdf::12                  5267                       # What read queue length does an incoming req see
system.mem_ctrls3.rdQLenPdf::13                  4836                       # What read queue length does an incoming req see
system.mem_ctrls3.rdQLenPdf::14                  4379                       # What read queue length does an incoming req see
system.mem_ctrls3.rdQLenPdf::15                  3972                       # What read queue length does an incoming req see
system.mem_ctrls3.rdQLenPdf::16                  3580                       # What read queue length does an incoming req see
system.mem_ctrls3.rdQLenPdf::17                  3395                       # What read queue length does an incoming req see
system.mem_ctrls3.rdQLenPdf::18                  2998                       # What read queue length does an incoming req see
system.mem_ctrls3.rdQLenPdf::19                  2670                       # What read queue length does an incoming req see
system.mem_ctrls3.rdQLenPdf::20                  2476                       # What read queue length does an incoming req see
system.mem_ctrls3.rdQLenPdf::21                  2269                       # What read queue length does an incoming req see
system.mem_ctrls3.rdQLenPdf::22                  2184                       # What read queue length does an incoming req see
system.mem_ctrls3.rdQLenPdf::23                  1953                       # What read queue length does an incoming req see
system.mem_ctrls3.rdQLenPdf::24                  1851                       # What read queue length does an incoming req see
[...]
system.ruby.L2Cache_Controller.MT_MB.L1_GETX::total            2                      
system.ruby.L2Cache_Controller.MT_MB.L1_PUTX |           0      0.00%      0.00% |           1      2.86%      2.86% |           0      0.00%      2.86% |           0      0.00%      2.86% |           1      2.86%      5.71% |           3      8.57%     14.29% |           3      8.57%     22.86% |           1      2.86%     25.71% |           1      2.86%     28.57% |           0      0.00%     28.57% |           1      2.86%     31.43% |           1      2.86%     34.29% |           0      0.00%     34.29% |           0      0.00%     34.29% |           2      5.71%     40.00% |           0      0.00%     40.00% |           3      8.57%     48.57% |           3      8.57%     57.14% |           2      5.71%     62.86% |           2      5.71%     68.57% |           2      5.71%     74.29% |           0      0.00%     74.29% |           0      0.00%     74.29% |           0      0.00%     74.29% |           1      2.86%     77.14% |           1      2.86%     80.00% |           1      2.86%     82.86% |           1      2.86%     85.71% |           1      2.86%     88.57% |           1      2.86%     91.43% |           1      2.86%     94.29% |           2      5.71%    100.00%
system.ruby.L2Cache_Controller.MT_MB.L1_PUTX::total           35                      
system.ruby.L2Cache_Controller.MT_MB.Exclusive_Unblock |      150544      5.75%      5.75% |       80133      3.06%      8.82% |       78781      3.01%     11.83% |       79786      3.05%     14.88% |       79161      3.03%     17.90% |       78717      3.01%     20.91% |       78572      3.00%     23.92% |       78336      2.99%     26.91% |       78769      3.01%     29.92% |       79790      3.05%     32.97% |       80604      3.08%     36.05% |       80390      3.07%     39.13% |       80056      3.06%     42.19% |       78946      3.02%     45.20% |       78053      2.98%     48.19% |       78317      2.99%     51.18% |       79451      3.04%     54.22% |       78968      3.02%     57.24% |       79549      3.04%     60.28% |       79784      3.05%     63.33% |       79430      3.04%     66.36% |       81403      3.11%     69.47% |       79695      3.05%     72.52% |       79278      3.03%     75.55% |       79313      3.03%     78.58% |       79611      3.04%     81.62% |       79215      3.03%     84.65% |       78943      3.02%     87.67% |       79379      3.03%     90.70% |       78613      3.00%     93.71% |       81447      3.11%     96.82% |       83141      3.18%    100.00%
system.ruby.L2Cache_Controller.MT_MB.Exclusive_Unblock::total      2616175                      
system.ruby.L2Cache_Controller.MT_IIB.L1_GETS |           6      5.61%      5.61% |           0      0.00%      5.61% |           3      2.80%      8.41% |           3      2.80%     11.21% |           4      3.74%     14.95% |           4      3.74%     18.69% |           5      4.67%     23.36% |           4      3.74%     27.10% |           2      1.87%     28.97% |           3      2.80%     31.78% |           1      0.93%     32.71% |           1      0.93%     33.64% |           3      2.80%     36.45% |           5      4.67%     41.12% |           1      0.93%     42.06% |           0      0.00%     42.06% |           1      0.93%     42.99% |           1      0.93%     43.93% |           1      0.93%     44.86% |           3      2.80%     47.66% |           2      1.87%     49.53% |           3      2.80%     52.34% |           3      2.80%     55.14% |           3      2.80%     57.94% |           3      2.80%     60.75% |           7      6.54%     67.29% |           7      6.54%     73.83% |           7      6.54%     80.37% |           5      4.67%     85.05% |           7      6.54%     91.59% |           8      7.48%     99.07% |           1      0.93%    100.00%
system.ruby.L2Cache_Controller.MT_IIB.L1_GETS::total          107                      
system.ruby.L2Cache_Controller.MT_IIB.L1_PUTX |           2      1.55%      1.55% |           2      1.55%      3.10% |           2      1.55%      4.65% |           2      1.55%      6.20% |           5      3.88%     10.08% |           2      1.55%     11.63% |           1      0.78%     12.40% |           2      1.55%     13.95% |           6      4.65%     18.60% |           3      2.33%     20.93% |           6      4.65%     25.58% |           9      6.98%     32.56% |          11      8.53%     41.09% |           2      1.55%     42.64% |           5      3.88%     46.51% |           4      3.10%     49.61% |           3      2.33%     51.94% |           3      2.33%     54.26% |           7      5.43%     59.69% |           7      5.43%     65.12% |           2      1.55%     66.67% |           4      3.10%     69.77% |           7      5.43%     75.19% |           4      3.10%     78.29% |           1      0.78%     79.07% |           2      1.55%     80.62% |           8      6.20%     86.82% |           5      3.88%     90.70% |           3      2.33%     93.02% |           5      3.88%     96.90% |           2      1.55%     98.45% |           2      1.55%    100.00%
system.ruby.L2Cache_Controller.MT_IIB.L1_PUTX::total          129                      
system.ruby.L2Cache_Controller.MT_IIB.WB_Data |           0      0.00%      0.00% |           0      0.00%      0.00% |           0      0.00%      0.00% |           0      0.00%      0.00% |           0      0.00%      0.00% |           0      0.00%      0.00% |           0      0.00%      0.00% |           0      0.00%      0.00% |           0      0.00%      0.00% |           0      0.00%      0.00% |           0      0.00%      0.00% |           0      0.00%      0.00% |           0      0.00%      0.00% |           0      0.00%      0.00% |           0      0.00%      0.00% |           0      0.00%      0.00% |           0      0.00%      0.00% |           0      0.00%      0.00% |           0      0.00%      0.00% |           0      0.00%      0.00% |           0      0.00%      0.00% |           0      0.00%      0.00% |           0      0.00%      0.00% |           0      0.00%      0.00% |           0      0.00%      0.00% |           2    100.00%    100.00% |           0      0.00%    100.00% |           0      0.00%    100.00% |           0      0.00%    100.00% |           0      0.00%    100.00% |           0      0.00%    100.00% |           0      0.00%    100.00%
system.ruby.L2Cache_Controller.MT_IIB.WB_Data::total            2                      
system.ruby.L2Cache_Controller.MT_IIB.WB_Data_clean |        1580      2.98%      2.98% |        1588      3.00%      5.98% |        1650      3.11%      9.10% |        1642      3.10%     12.19% |        1675      3.16%     15.36% |        1646      3.11%     18.46% |        1683      3.18%     21.64% |        1657      3.13%     24.77% |        1676      3.16%     27.93% |        1726      3.26%     31.19% |        1774      3.35%     34.54% |        1779      3.36%     37.90% |        1834      3.46%     41.36% |        1804      3.41%     44.77% |        1799      3.40%     48.16% |        1715      3.24%     51.40% |        1669      3.15%     54.55% |        1652      3.12%     57.67% |        1641      3.10%     60.77% |        1633      3.08%     63.85% |        1654      3.12%     66.97% |        1638      3.09%     70.06% |        1669      3.15%     73.21% |        1572      2.97%     76.18% |        1566      2.96%     79.14% |        1588      3.00%     82.14% |        1560      2.94%     85.08% |        1516      2.86%     87.94% |        1579      2.98%     90.92% |        1571      2.97%     93.89% |        1636      3.09%     96.98% |        1601      3.02%    100.00%
system.ruby.L2Cache_Controller.MT_IIB.WB_Data_clean::total        52973                      
system.ruby.L2Cache_Controller.MT_IIB.Unblock |          36      1.54%      1.54% |          43      1.84%      3.37% |          53      2.26%      5.63% |          49      2.09%      7.73% |          58      2.48%     10.20% |          47      2.01%     12.21% |          57      2.43%     14.64% |          49      2.09%     16.73% |         107      4.57%     21.30% |          72      3.07%     24.37% |          86      3.67%     28.04% |          96      4.10%     32.14% |          68      2.90%     35.04% |          90      3.84%     38.88% |         101      4.31%     43.19% |          62      2.65%     45.84% |          82      3.50%     49.34% |          76      3.24%     52.58% |          75      3.20%     55.78% |          85      3.63%     59.41% |         108      4.61%     64.02% |          72      3.07%     67.09% |          70      2.99%     70.08% |          87      3.71%     73.79% |          93      3.97%     77.76% |          85      3.63%     81.39% |          73      3.12%     84.51% |         101      4.31%     88.82% |          63      2.69%     91.51% |          79      3.37%     94.88% |          52      2.22%     97.10% |          68      2.90%    100.00%
system.ruby.L2Cache_Controller.MT_IIB.Unblock::total         2343                      
system.ruby.L2Cache_Controller.MT_IB.WB_Data_clean |          36      1.54%      1.54% |          43      1.84%      3.37% |          53      2.26%      5.63% |          49      2.09%      7.73% |          58      2.48%     10.20% |          47      2.01%     12.21% |          57      2.43%     14.64% |          49      2.09%     16.73% |         107      4.57%     21.30% |          72      3.07%     24.37% |          86      3.67%     28.04% |          96      4.10%     32.14% |          68      2.90%     35.04% |          90      3.84%     38.88% |         101      4.31%     43.19% |          62      2.65%     45.84% |          82      3.50%     49.34% |          76      3.24%     52.58% |          75      3.20%     55.78% |          85      3.63%     59.41% |         108      4.61%     64.02% |          72      3.07%     67.09% |          70      2.99%     70.08% |          87      3.71%     73.79% |          93      3.97%     77.76% |          85      3.63%     81.39% |          73      3.12%     84.51% |         101      4.31%     88.82% |          63      2.69%     91.51% |          79      3.37%     94.88% |          52      2.22%     97.10% |          68      2.90%    100.00%
system.ruby.L2Cache_Controller.MT_IB.WB_Data_clean::total         2343                      
system.ruby.L2Cache_Controller.MT_SB.L1_GETS |           1      7.14%      7.14% |           0      0.00%      7.14% |           0      0.00%      7.14% |           0      0.00%      7.14% |           0      0.00%      7.14% |           1      7.14%     14.29% |           1      7.14%     21.43% |           0      0.00%     21.43% |           0      0.00%     21.43% |           0      0.00%     21.43% |           0      0.00%     21.43% |           0      0.00%     21.43% |           1      7.14%     28.57% |           0      0.00%     28.57% |           0      0.00%     28.57% |           2     14.29%     42.86% |           0      0.00%     42.86% |           0      0.00%     42.86% |           0      0.00%     42.86% |           1      7.14%     50.00% |           0      0.00%     50.00% |           2     14.29%     64.29% |           0      0.00%     64.29% |           0      0.00%     64.29% |           0      0.00%     64.29% |           0      0.00%     64.29% |           2     14.29%     78.57% |           0      0.00%     78.57% |           2     14.29%     92.86% |           0      0.00%     92.86% |           1      7.14%    100.00% |           0      0.00%    100.00%
system.ruby.L2Cache_Controller.MT_SB.L1_GETS::total           14                      
system.ruby.L2Cache_Controller.MT_SB.L1_PUTX |           1      7.14%      7.14% |           0      0.00%      7.14% |           1      7.14%     14.29% |           0      0.00%     14.29% |           0      0.00%     14.29% |           0      0.00%     14.29% |           1      7.14%     21.43% |           0      0.00%     21.43% |           0      0.00%     21.43% |           0      0.00%     21.43% |           2     14.29%     35.71% |           0      0.00%     35.71% |           0      0.00%     35.71% |           0      0.00%     35.71% |           0      0.00%     35.71% |           1      7.14%     42.86% |           0      0.00%     42.86% |           0      0.00%     42.86% |           0      0.00%     42.86% |           2     14.29%     57.14% |           1      7.14%     64.29% |           2     14.29%     78.57% |           0      0.00%     78.57% |           1      7.14%     85.71% |           0      0.00%     85.71% |           1      7.14%     92.86% |           1      7.14%    100.00% |           0      0.00%    100.00% |           0      0.00%    100.00% |           0      0.00%    100.00% |           0      0.00%    100.00% |           0      0.00%    100.00%
system.ruby.L2Cache_Controller.MT_SB.L1_PUTX::total           14                      
system.ruby.L2Cache_Controller.MT_SB.Unblock |        1580      2.98%      2.98% |        1588      3.00%      5.98% |        1650      3.11%      9.09% |        1642      3.10%     12.19% |        1675      3.16%     15.36% |        1646      3.11%     18.46% |        1683      3.18%     21.64% |        1657      3.13%     24.77% |        1676      3.16%     27.93% |        1726      3.26%     31.19% |        1774      3.35%     34.54% |        1779      3.36%     37.90% |        1834      3.46%     41.36% |        1804      3.41%     44.76% |        1799      3.40%     48.16% |        1715      3.24%     51.40% |        1669      3.15%     54.55% |        1652      3.12%     57.67% |        1641      3.10%     60.76% |        1633      3.08%     63.85% |        1654      3.12%     66.97% |        1638      3.09%     70.06% |        1669      3.15%     73.21% |        1572      2.97%     76.18% |        1566      2.96%     79.14% |        1590      3.00%     82.14% |        1560      2.94%     85.08% |        1516      2.86%     87.94% |        1579      2.98%     90.92% |        1571      2.97%     93.89% |        1636      3.09%     96.98% |        1601      3.02%    100.00%
system.ruby.L2Cache_Controller.MT_SB.Unblock::total        52975                      
system.ruby.SimicsNetworkPortInterface_Controller.MessageSend |      450600     21.66%     21.66% |     1040286     50.00%     71.66% |       19725      0.95%     72.61% |       19988      0.96%     73.57% |       20108      0.97%     74.53% |       20865      1.00%     75.54% |       20344      0.98%     76.51% |       20317      0.98%     77.49% |       19017      0.91%     78.40% |       19971      0.96%     79.36% |       18111      0.87%     80.23% |       20277      0.97%     81.21% |       20580      0.99%     82.20% |       19345      0.93%     83.13% |       18913      0.91%     84.04% |       15483      0.74%     84.78% |       17597      0.85%     85.63% |       20833      1.00%     86.63% |       20297      0.98%     87.60% |       18981      0.91%     88.52% |       19188      0.92%     89.44% |       19264      0.93%     90.36% |       19939      0.96%     91.32% |       19351      0.93%     92.25% |       20206      0.97%     93.22% |       20198      0.97%     94.19% |       20385      0.98%     95.17% |       20093      0.97%     96.14% |       19839      0.95%     97.09% |       20193      0.97%     98.06% |       19770      0.95%     99.01% |       20508      0.99%    100.00%
system.ruby.SimicsNetworkPortInterface_Controller.MessageSend::total      2080572                      
system.ruby.SimicsNetworkPortInterface_Controller.MessageRecv |      450600     21.66%     21.66% |     1040286     50.00%     71.66% |       19725      0.95%     72.61% |       19988      0.96%     73.57% |       20108      0.97%     74.53% |       20865      1.00%     75.54% |       20344      0.98%     76.51% |       20317      0.98%     77.49% |       19017      0.91%     78.40% |       19971      0.96%     79.36% |       18111      0.87%     80.23% |       20277      0.97%     81.21% |       20580      0.99%     82.20% |       19345      0.93%     83.13% |       18913      0.91%     84.04% |       15483      0.74%     84.78% |       17597      0.85%     85.63% |       20833      1.00%     86.63% |       20297      0.98%     87.60% |       18981      0.91%     88.52% |       19188      0.92%     89.44% |       19264      0.93%     90.36% |       19939      0.96%     91.32% |       19351      0.93%     92.25% |       20206      0.97%     93.22% |       20198      0.97%     94.19% |       20385      0.98%     95.17% |       20093      0.97%     96.14% |       19839      0.95%     97.09% |       20193      0.97%     98.06% |       19770      0.95%     99.01% |       20508      0.99%    100.00%
system.ruby.SimicsNetworkPortInterface_Controller.MessageRecv::total      2080572                      
system.ruby.SimicsNetworkPortInterface_Controller.A.MessageSend |      450600     21.66%     21.66% |     1040286     50.00%     71.66% |       19725      0.95%     72.61% |       19988      0.96%     73.57% |       20108      0.97%     74.53% |       20865      1.00%     75.54% |       20344      0.98%     76.51% |       20317      0.98%     77.49% |       19017      0.91%     78.40% |       19971      0.96%     79.36% |       18111      0.87%     80.23% |       20277      0.97%     81.21% |       20580      0.99%     82.20% |       19345      0.93%     83.13% |       18913      0.91%     84.04% |       15483      0.74%     84.78% |       17597      0.85%     85.63% |       20833      1.00%     86.63% |       20297      0.98%     87.60% |       18981      0.91%     88.52% |       19188      0.92%     89.44% |       19264      0.93%     90.36% |       19939      0.96%     91.32% |       19351      0.93%     92.25% |       20206      0.97%     93.22% |       20198      0.97%     94.19% |       20385      0.98%     95.17% |       20093      0.97%     96.14% |       19839      0.95%     97.09% |       20193      0.97%     98.06% |       19770      0.95%     99.01% |       20508      0.99%    100.00%
system.ruby.SimicsNetworkPortInterface_Controller.A.MessageSend::total      2080572                      
system.ruby.SimicsNetworkPortInterface_Controller.A.MessageRecv |      450600     21.66%     21.66% |     1040286     50.00%     71.66% |       19725      0.95%     72.61% |       19988      0.96%     73.57% |       20108      0.97%     74.53% |       20865      1.00%     75.54% |       20344      0.98%     76.51% |       20317      0.98%     77.49% |       19017      0.91%     78.40% |       19971      0.96%     79.36% |       18111      0.87%     80.23% |       20277      0.97%     81.21% |       20580      0.99%     82.20% |       19345      0.93%     83.13% |       18913      0.91%     84.04% |       15483      0.74%     84.78% |       17597      0.85%     85.63% |       20833      1.00%     86.63% |       20297      0.98%     87.60% |       18981      0.91%     88.52% |       19188      0.92%     89.44% |       19264      0.93%     90.36% |       19939      0.96%     91.32% |       19351      0.93%     92.25% |       20206      0.97%     93.22% |       20198      0.97%     94.19% |       20385      0.98%     95.17% |       20093      0.97%     96.14% |       19839      0.95%     97.09% |       20193      0.97%     98.06% |       19770      0.95%     99.01% |       20508      0.99%    100.00%
system.ruby.SimicsNetworkPortInterface_Controller.A.MessageRecv::total      2080572                      
system.switch_cpus.kern.inst.arm                    0                       # number of arm instructions executed
system.switch_cpus.kern.inst.quiesce                0                       # number of quiesce instructions executed

---------- End Simulation Statistics   ----------
