
---------- Begin Simulation Statistics ----------
sim_seconds                                  0.056735                       # Number of seconds simulated
sim_ticks                                 56734580000                       # Number of ticks simulated
final_tick                               5232902658500                       # Number of ticks from beginning of simulation (restored from checkpoints and never reset)
sim_freq                                 1000000000000                       # Frequency of simulated ticks
host_inst_rate                                  30256                       # Simulator instruction rate (inst/s)
host_op_rate                                    53661                       # Simulator op (including micro ops) rate (op/s)
host_tick_rate                               75895254                       # Simulator tick rate (ticks/s)
host_mem_usage                                3580644                       # Number of bytes of host memory used
host_seconds                                   747.54                       # Real time elapsed on the host
sim_insts                                    22617488                       # Number of instructions simulated
sim_ops                                      40113399                       # Number of ops (including micro ops) simulated
system.voltage_domain.voltage                       1                       # Voltage in Volts
system.clk_domain.clock                           500                       # Clock period in ticks
system.mem_ctrls0.bytes_read::ruby.dir_cntrl0     12638528                       # Number of bytes read from this memory
system.mem_ctrls0.bytes_read::total          12638528                       # Number of bytes read from this memory
system.mem_ctrls0.bytes_written::ruby.dir_cntrl0      8043840                       # Number of bytes written to this memory
system.mem_ctrls0.bytes_written::total        8043840                       # Number of bytes written to this memory
system.mem_ctrls0.num_reads::ruby.dir_cntrl0       197477                       # Number of read requests responded to by this memory
system.mem_ctrls0.num_reads::total             197477                       # Number of read requests responded to by this memory
system.mem_ctrls0.num_writes::ruby.dir_cntrl0       125685                       # Number of write requests responded to by this memory
system.mem_ctrls0.num_writes::total            125685                       # Number of write requests responded to by this memory
system.mem_ctrls0.bw_read::ruby.dir_cntrl0    222765869                       # Total read bandwidth from this memory (bytes/s)
system.mem_ctrls0.bw_read::total            222765869                       # Total read bandwidth from this memory (bytes/s)
system.mem_ctrls0.bw_write::ruby.dir_cntrl0    141780198                       # Write bandwidth from this memory (bytes/s)
system.mem_ctrls0.bw_write::total           141780198                       # Write bandwidth from this memory (bytes/s)
system.mem_ctrls0.bw_total::ruby.dir_cntrl0    364546067                       # Total bandwidth to/from this memory (bytes/s)
system.mem_ctrls0.bw_total::total           364546067                       # Total bandwidth to/from this memory (bytes/s)
system.mem_ctrls0.readReqs                     197477                       # Number of read requests accepted
system.mem_ctrls0.writeReqs                    125685                       # Number of write requests accepted
system.mem_ctrls0.readBursts                   197477                       # Number of DRAM read bursts, including those serviced by the write queue
system.mem_ctrls0.writeBursts                  125685                       # Number of DRAM write bursts, including those merged in the write queue
system.mem_ctrls0.bytesReadDRAM              12636992                       # Total number of bytes read from DRAM
system.mem_ctrls0.bytesReadWrQ                   1536                       # Total number of bytes read from write queue
system.mem_ctrls0.bytesWritten                8043840                       # Total number of bytes written to DRAM
system.mem_ctrls0.bytesReadSys               12638528                       # Total read bytes from the system interface side
system.mem_ctrls0.bytesWrittenSys             8043840                       # Total written bytes from the system interface side
system.mem_ctrls0.servicedByWrQ                    24                       # Number of DRAM read bursts serviced by the write queue
system.mem_ctrls0.mergedWrBursts                    0                       # Number of DRAM write bursts merged with an existing one
system.mem_ctrls0.neitherReadNorWriteReqs            0                       # Number of requests that are neither read nor write
system.mem_ctrls0.perBankRdBursts::0            12093                       # Per bank write bursts
system.mem_ctrls0.perBankRdBursts::1            12218                       # Per bank write bursts
system.mem_ctrls0.perBankRdBursts::2            12075                       # Per bank write bursts
system.mem_ctrls0.perBankRdBursts::3            12418                       # Per bank write bursts
system.mem_ctrls0.perBankRdBursts::4            12205                       # Per bank write bursts
system.mem_ctrls0.perBankRdBursts::5            12290                       # Per bank write bursts
system.mem_ctrls0.perBankRdBursts::6            12506                       # Per bank write bursts
system.mem_ctrls0.perBankRdBursts::7            12667                       # Per bank write bursts
system.mem_ctrls0.perBankRdBursts::8            12447                       # Per bank write bursts
system.mem_ctrls0.perBankRdBursts::9            12807                       # Per bank write bursts
system.mem_ctrls0.perBankRdBursts::10           12442                       # Per bank write bursts
system.mem_ctrls0.perBankRdBursts::11           12721                       # Per bank write bursts
system.mem_ctrls0.perBankRdBursts::12           12285                       # Per bank write bursts
system.mem_ctrls0.perBankRdBursts::13           12050                       # Per bank write bursts
system.mem_ctrls0.perBankRdBursts::14           12313                       # Per bank write bursts
system.mem_ctrls0.perBankRdBursts::15           11916                       # Per bank write bursts
system.mem_ctrls0.perBankWrBursts::0             7793                       # Per bank write bursts
system.mem_ctrls0.perBankWrBursts::1             7667                       # Per bank write bursts
system.mem_ctrls0.perBankWrBursts::2             7810                       # Per bank write bursts
system.mem_ctrls0.perBankWrBursts::3             7843                       # Per bank write bursts
system.mem_ctrls0.perBankWrBursts::4             7798                       # Per bank write bursts
system.mem_ctrls0.perBankWrBursts::5             7885                       # Per bank write bursts
system.mem_ctrls0.perBankWrBursts::6             7999                       # Per bank write bursts
system.mem_ctrls0.perBankWrBursts::7             8024                       # Per bank write bursts
system.mem_ctrls0.perBankWrBursts::8             7919                       # Per bank write bursts
system.mem_ctrls0.perBankWrBursts::9             8076                       # Per bank write bursts
system.mem_ctrls0.perBankWrBursts::10            7881                       # Per bank write bursts
system.mem_ctrls0.perBankWrBursts::11            7919                       # Per bank write bursts
system.mem_ctrls0.perBankWrBursts::12            7763                       # Per bank write bursts
system.mem_ctrls0.perBankWrBursts::13            7817                       # Per bank write bursts
system.mem_ctrls0.perBankWrBursts::14            7865                       # Per bank write bursts
system.mem_ctrls0.perBankWrBursts::15            7626                       # Per bank write bursts
system.mem_ctrls0.numRdRetry                    69399                       # Number of times read queue was full causing retry
system.mem_ctrls0.numWrRetry                     6559                       # Number of times write queue was full causing retry
system.mem_ctrls0.totGap                  56734091000                       # Total gap between requests
system.mem_ctrls0.readPktSize::0                    0                       # Read request sizes (log2)
system.mem_ctrls0.readPktSize::1                    0                       # Read request sizes (log2)
system.mem_ctrls0.readPktSize::2                    0                       # Read request sizes (log2)
system.mem_ctrls0.readPktSize::3                    0                       # Read request sizes (log2)
system.mem_ctrls0.readPktSize::4                    0                       # Read request sizes (log2)
system.mem_ctrls0.readPktSize::5                    0                       # Read request sizes (log2)
system.mem_ctrls0.readPktSize::6               197477                       # Read request sizes (log2)
system.mem_ctrls0.writePktSize::0                   0                       # Write request sizes (log2)
system.mem_ctrls0.writePktSize::1                   0                       # Write request sizes (log2)
system.mem_ctrls0.writePktSize::2                   0                       # Write request sizes (log2)
system.mem_ctrls0.writePktSize::3                   0                       # Write request sizes (log2)
system.mem_ctrls0.writePktSize::4                   0                       # Write request sizes (log2)
system.mem_ctrls0.writePktSize::5                   0                       # Write request sizes (log2)
system.mem_ctrls0.writePktSize::6              125685                       # Write request sizes (log2)
system.mem_ctrls0.rdQLenPdf::0                  68862                       # What read queue length does an incoming req see
system.mem_ctrls0.rdQLenPdf::1                   2990                       # What read queue length does an incoming req see
system.mem_ctrls0.rdQLenPdf::2                   1833                       # What read queue length does an incoming req see
system.mem_ctrls0.rdQLenPdf::3                   1353                       # What read queue length does an incoming req see
system.mem_ctrls0.rdQLenPdf::4                   1398                       # What read queue length does an incoming req see
system.mem_ctrls0.rdQLenPdf::5                   1497                       # What read queue length does an incoming req see
system.mem_ctrls0.rdQLenPdf::6                   1601                       # What read queue length does an incoming req see
system.mem_ctrls0.rdQLenPdf::7                   1713                       # What read queue length does an incoming req see
system.mem_ctrls0.rdQLenPdf::8                   1681                       # What read queue length does an incoming req see
system.mem_ctrls0.rdQLenPdf::9                   1698                       # What read queue length does an incoming req see
system.mem_ctrls0.rdQLenPdf::10                  1622                       # What read queue length does an incoming req see
system.mem_ctrls0.rdQLenPdf::11                  1756                       # What read queue length does an incoming req see
system.mem_ctrls0.rdQLenPdf::12                  1650                       # What read queue length does an incoming req see
system.mem_ctrls0.rdQLenPdf::13                  1693                       # What read queue length does an incoming req see
system.mem_ctrls0.rdQLenPdf::14                  1728                       # What read queue length does an incoming req see
system.mem_ctrls0.rdQLenPdf::15                  1809                       # What read queue length does an incoming req see
system.mem_ctrls0.rdQLenPdf::16                  1812                       # What read queue length does an incoming req see
system.mem_ctrls0.rdQLenPdf::17                  1773                       # What read queue length does an incoming req see
system.mem_ctrls0.rdQLenPdf::18                  1747                       # What read queue length does an incoming req see
system.mem_ctrls0.rdQLenPdf::19                  1783                       # What read queue length does an incoming req see
system.mem_ctrls0.rdQLenPdf::20                  1765                       # What read queue length does an incoming req see
system.mem_ctrls0.rdQLenPdf::21                  1784                       # What read queue length does an incoming req see
system.mem_ctrls0.rdQLenPdf::22                  1833                       # What read queue length does an incoming req see
system.mem_ctrls0.rdQLenPdf::23                  1852                       # What read queue length does an incoming req see
system.mem_ctrls0.rdQLenPdf::24                  1902                       # What read queue length does an incoming req see
system.mem_ctrls0.rdQLenPdf::25                  1969                       # What read queue length does an incoming req see
system.mem_ctrls0.rdQLenPdf::26                  2055                       # What read queue length does an incoming req see
system.mem_ctrls0.rdQLenPdf::27                  2150                       # What read queue length does an incoming req see
system.mem_ctrls0.rdQLenPdf::28                  2257                       # What read queue length does an incoming req see
system.mem_ctrls0.rdQLenPdf::29                  2374                       # What read queue length does an incoming req see
system.mem_ctrls0.rdQLenPdf::30                  2644                       # What read queue length does an incoming req see
system.mem_ctrls0.rdQLenPdf::31                 72869                       # What read queue length does an incoming req see
system.mem_ctrls0.wrQLenPdf::0                  16835                       # What write queue length does an incoming req see
system.mem_ctrls0.wrQLenPdf::1                  18453                       # What write queue length does an incoming req see
system.mem_ctrls0.wrQLenPdf::2                  19232                       # What write queue length does an incoming req see
system.mem_ctrls0.wrQLenPdf::3                  19621                       # What write queue length does an incoming req see
system.mem_ctrls0.wrQLenPdf::4                  20060                       # What write queue length does an incoming req see
system.mem_ctrls0.wrQLenPdf::5                   8245                       # What write queue length does an incoming req see
system.mem_ctrls0.wrQLenPdf::6                   9492                       # What write queue length does an incoming req see
system.mem_ctrls0.wrQLenPdf::7                  13747                       # What write queue length does an incoming req see
system.mem_ctrls0.bytesPerActivate::samples        82920                       # Bytes accessed per row activation
system.mem_ctrls0.bytesPerActivate::mean   249.397009                       # Bytes accessed per row activation
system.mem_ctrls0.bytesPerActivate::gmean   177.803894                       # Bytes accessed per row activation
system.mem_ctrls0.bytesPerActivate::stdev   219.353488                       # Bytes accessed per row activation
system.mem_ctrls0.bytesPerActivate::0-127        25046     30.21%     30.21% # Bytes accessed per row activation
system.mem_ctrls0.bytesPerActivate::128-255        21089     25.43%     55.64% # Bytes accessed per row activation
system.mem_ctrls0.bytesPerActivate::256-383        21708     26.18%     81.82% # Bytes accessed per row activation
system.mem_ctrls0.bytesPerActivate::384-511         5249      6.33%     88.15% # Bytes accessed per row activation
system.mem_ctrls0.bytesPerActivate::512-639         3702      4.46%     92.61% # Bytes accessed per row activation
system.mem_ctrls0.bytesPerActivate::640-767         1876      2.26%     94.87% # Bytes accessed per row activation
system.mem_ctrls0.bytesPerActivate::768-895         1174      1.42%     96.29% # Bytes accessed per row activation
system.mem_ctrls0.bytesPerActivate::896-1023          840      1.01%     97.30% # Bytes accessed per row activation
system.mem_ctrls0.bytesPerActivate::1024-1151         2236      2.70%    100.00% # Bytes accessed per row activation
system.mem_ctrls0.bytesPerActivate::total        82920                       # Bytes accessed per row activation
system.mem_ctrls0.rdPerTurnAround::samples        17594                       # Reads before turning the bus around for writes
system.mem_ctrls0.rdPerTurnAround::mean     11.222746                       # Reads before turning the bus around for writes
system.mem_ctrls0.rdPerTurnAround::stdev    32.165095                       # Reads before turning the bus around for writes
system.mem_ctrls0.rdPerTurnAround::0-127        17582     99.93%     99.93% # Reads before turning the bus around for writes
system.mem_ctrls0.rdPerTurnAround::128-255           11      0.06%     99.99% # Reads before turning the bus around for writes
system.mem_ctrls0.rdPerTurnAround::3968-4095            1      0.01%    100.00% # Reads before turning the bus around for writes
system.mem_ctrls0.rdPerTurnAround::total        17594                       # Reads before turning the bus around for writes
system.mem_ctrls0.wrPerTurnAround::samples        17594                       # Writes before turning the bus around for reads
system.mem_ctrls0.wrPerTurnAround::mean      7.143629                       # Writes before turning the bus around for reads
system.mem_ctrls0.wrPerTurnAround::gmean     6.485466                       # Writes before turning the bus around for reads
system.mem_ctrls0.wrPerTurnAround::stdev     3.586275                       # Writes before turning the bus around for reads
system.mem_ctrls0.wrPerTurnAround::4-7          12611     71.68%     71.68% # Writes before turning the bus around for reads
system.mem_ctrls0.wrPerTurnAround::8-11          2120     12.05%     83.73% # Writes before turning the bus around for reads
system.mem_ctrls0.wrPerTurnAround::12-15         1727      9.82%     93.54% # Writes before turning the bus around for reads
system.mem_ctrls0.wrPerTurnAround::16-19         1136      6.46%    100.00% # Writes before turning the bus around for reads
system.mem_ctrls0.wrPerTurnAround::total        17594                       # Writes before turning the bus around for reads
system.mem_ctrls0.totQLat                 32270883950                       # Total ticks spent queuing
system.mem_ctrls0.totMemAccLat            35973127700                       # Total ticks spent from burst creation until serviced by the DRAM
system.mem_ctrls0.totBusLat                 987265000                       # Total ticks spent in databus transfers
system.mem_ctrls0.avgQLat                   163435.77                       # Average queueing delay per DRAM burst
system.mem_ctrls0.avgBusLat                   5000.00                       # Average bus latency per DRAM burst
system.mem_ctrls0.avgMemAccLat              182185.77                       # Average memory access latency per DRAM burst
system.mem_ctrls0.avgRdBW                      222.74                       # Average DRAM read bandwidth in MiByte/s
system.mem_ctrls0.avgWrBW                      141.78                       # Average achieved write bandwidth in MiByte/s
system.mem_ctrls0.avgRdBWSys                   222.77                       # Average system read bandwidth in MiByte/s
system.mem_ctrls0.avgWrBWSys                   141.78                       # Average system write bandwidth in MiByte/s
system.mem_ctrls0.peakBW                     12800.00                       # Theoretical peak bandwidth in MiByte/s
system.mem_ctrls0.busUtil                        2.85                       # Data bus utilization in percentage
system.mem_ctrls0.busUtilRead                    1.74                       # Data bus utilization in percentage for reads
system.mem_ctrls0.busUtilWrite                   1.11                       # Data bus utilization in percentage for writes
system.mem_ctrls0.avgRdQLen                      1.60                       # Average read queue length when enqueuing
system.mem_ctrls0.avgWrQLen                      2.93                       # Average write queue length when enqueuing
system.mem_ctrls0.readRowHits                  155149                       # Number of row buffer hits during reads
system.mem_ctrls0.writeRowHits                  85059                       # Number of row buffer hits during writes
system.mem_ctrls0.readRowHitRate                78.58                       # Row buffer hit rate for reads
system.mem_ctrls0.writeRowHitRate               67.68                       # Row buffer hit rate for writes
system.mem_ctrls0.avgGap                    175559.29                       # Average gap between requests
system.mem_ctrls0.pageHitRate                   74.34                       # Row buffer hit rate, read and write combined
system.mem_ctrls0.memoryStateTime::IDLE   11627491000                       # Time in different power states
system.mem_ctrls0.memoryStateTime::REF     1894360000                       # Time in different power states
system.mem_ctrls0.memoryStateTime::PRE_PDN            0                       # Time in different power states
system.mem_ctrls0.memoryStateTime::ACT    43209040250                       # Time in different power states
system.mem_ctrls0.memoryStateTime::ACT_PDN            0                       # Time in different power states
system.mem_ctrls0.actEnergy::0              315894600                       # Energy for activate commands per rank (pJ)
system.mem_ctrls0.actEnergy::1              310912560                       # Energy for activate commands per rank (pJ)
system.mem_ctrls0.preEnergy::0              172363125                       # Energy for precharge commands per rank (pJ)
system.mem_ctrls0.preEnergy::1              169644750                       # Energy for precharge commands per rank (pJ)
system.mem_ctrls0.readEnergy::0             768027000                       # Energy for read commands per rank (pJ)
system.mem_ctrls0.readEnergy::1             771958200                       # Energy for read commands per rank (pJ)
system.mem_ctrls0.writeEnergy::0            407034720                       # Energy for write commands per rank (pJ)
system.mem_ctrls0.writeEnergy::1            407339280                       # Energy for write commands per rank (pJ)
system.mem_ctrls0.refreshEnergy::0         3705368160                       # Energy for refresh commands per rank (pJ)
system.mem_ctrls0.refreshEnergy::1         3705368160                       # Energy for refresh commands per rank (pJ)
system.mem_ctrls0.actBackEnergy::0        22311004410                       # Energy for active background per rank (pJ)
system.mem_ctrls0.actBackEnergy::1        21789606600                       # Energy for active background per rank (pJ)
system.mem_ctrls0.preBackEnergy::0        14467470000                       # Energy for precharge background per rank (pJ)
system.mem_ctrls0.preBackEnergy::1        14924836500                       # Energy for precharge background per rank (pJ)
system.mem_ctrls0.totalEnergy::0          42147162015                       # Total energy per rank (pJ)
system.mem_ctrls0.totalEnergy::1          42079666050                       # Total energy per rank (pJ)
system.mem_ctrls0.averagePower::0          742.931607                       # Core power per rank (mW)
system.mem_ctrls0.averagePower::1          741.741850                       # Core power per rank (mW)
system.mem_ctrls1.bytes_read::ruby.dir_cntrl1     12412224                       # Number of bytes read from this memory
system.mem_ctrls1.bytes_read::total          12412224                       # Number of bytes read from this memory
system.mem_ctrls1.bytes_written::ruby.dir_cntrl1      7826496                       # Number of bytes written to this memory
system.mem_ctrls1.bytes_written::total        7826496                       # Number of bytes written to this memory
system.mem_ctrls1.num_reads::ruby.dir_cntrl1       193941                       # Number of read requests responded to by this memory
system.mem_ctrls1.num_reads::total             193941                       # Number of read requests responded to by this memory
system.mem_ctrls1.num_writes::ruby.dir_cntrl1       122289                       # Number of write requests responded to by this memory
system.mem_ctrls1.num_writes::total            122289                       # Number of write requests responded to by this memory
system.mem_ctrls1.bw_read::ruby.dir_cntrl1    218777049                       # Total read bandwidth from this memory (bytes/s)
system.mem_ctrls1.bw_read::total            218777049                       # Total read bandwidth from this memory (bytes/s)
system.mem_ctrls1.bw_write::ruby.dir_cntrl1    137949307                       # Write bandwidth from this memory (bytes/s)
system.mem_ctrls1.bw_write::total           137949307                       # Write bandwidth from this memory (bytes/s)
system.mem_ctrls1.bw_total::ruby.dir_cntrl1    356726356                       # Total bandwidth to/from this memory (bytes/s)
system.mem_ctrls1.bw_total::total           356726356                       # Total bandwidth to/from this memory (bytes/s)
system.mem_ctrls1.readReqs                     193941                       # Number of read requests accepted
system.mem_ctrls1.writeReqs                    122289                       # Number of write requests accepted
system.mem_ctrls1.readBursts                   193941                       # Number of DRAM read bursts, including those serviced by the write queue
system.mem_ctrls1.writeBursts                  122289                       # Number of DRAM write bursts, including those merged in the write queue
system.mem_ctrls1.bytesReadDRAM              12410560                       # Total number of bytes read from DRAM
system.mem_ctrls1.bytesReadWrQ                   1664                       # Total number of bytes read from write queue
system.mem_ctrls1.bytesWritten                7826496                       # Total number of bytes written to DRAM
system.mem_ctrls1.bytesReadSys               12412224                       # Total read bytes from the system interface side
system.mem_ctrls1.bytesWrittenSys             7826496                       # Total written bytes from the system interface side
system.mem_ctrls1.servicedByWrQ                    26                       # Number of DRAM read bursts serviced by the write queue
system.mem_ctrls1.mergedWrBursts                    0                       # Number of DRAM write bursts merged with an existing one
system.mem_ctrls1.neitherReadNorWriteReqs            0                       # Number of requests that are neither read nor write
system.mem_ctrls1.perBankRdBursts::0            11883                       # Per bank write bursts
system.mem_ctrls1.perBankRdBursts::1            11997                       # Per bank write bursts
system.mem_ctrls1.perBankRdBursts::2            11850                       # Per bank write bursts
system.mem_ctrls1.perBankRdBursts::3            12182                       # Per bank write bursts
system.mem_ctrls1.perBankRdBursts::4            12003                       # Per bank write bursts
system.mem_ctrls1.perBankRdBursts::5            12106                       # Per bank write bursts
system.mem_ctrls1.perBankRdBursts::6            12321                       # Per bank write bursts
system.mem_ctrls1.perBankRdBursts::7            12458                       # Per bank write bursts
system.mem_ctrls1.perBankRdBursts::8            12213                       # Per bank write bursts
system.mem_ctrls1.perBankRdBursts::9            12580                       # Per bank write bursts
system.mem_ctrls1.perBankRdBursts::10           12203                       # Per bank write bursts
system.mem_ctrls1.perBankRdBursts::11           12529                       # Per bank write bursts
system.mem_ctrls1.perBankRdBursts::12           12056                       # Per bank write bursts
system.mem_ctrls1.perBankRdBursts::13           11818                       # Per bank write bursts
system.mem_ctrls1.perBankRdBursts::14           12003                       # Per bank write bursts
system.mem_ctrls1.perBankRdBursts::15           11713                       # Per bank write bursts
system.mem_ctrls1.perBankWrBursts::0             7590                       # Per bank write bursts
system.mem_ctrls1.perBankWrBursts::1             7475                       # Per bank write bursts
system.mem_ctrls1.perBankWrBursts::2             7606                       # Per bank write bursts
system.mem_ctrls1.perBankWrBursts::3             7630                       # Per bank write bursts
system.mem_ctrls1.perBankWrBursts::4             7601                       # Per bank write bursts
system.mem_ctrls1.perBankWrBursts::5             7687                       # Per bank write bursts
system.mem_ctrls1.perBankWrBursts::6             7776                       # Per bank write bursts
system.mem_ctrls1.perBankWrBursts::7             7805                       # Per bank write bursts
system.mem_ctrls1.perBankWrBursts::8             7709                       # Per bank write bursts
system.mem_ctrls1.perBankWrBursts::9             7860                       # Per bank write bursts
system.mem_ctrls1.perBankWrBursts::10            7663                       # Per bank write bursts
system.mem_ctrls1.perBankWrBursts::11            7708                       # Per bank write bursts
system.mem_ctrls1.perBankWrBursts::12            7552                       # Per bank write bursts
system.mem_ctrls1.perBankWrBursts::13            7603                       # Per bank write bursts
system.mem_ctrls1.perBankWrBursts::14            7596                       # Per bank write bursts
system.mem_ctrls1.perBankWrBursts::15            7428                       # Per bank write bursts
system.mem_ctrls1.numRdRetry                    62678                       # Number of times read queue was full causing retry
system.mem_ctrls1.numWrRetry                     6387                       # Number of times write queue was full causing retry
system.mem_ctrls1.totGap                  56733813000                       # Total gap between requests
system.mem_ctrls1.readPktSize::0                    0                       # Read request sizes (log2)
system.mem_ctrls1.readPktSize::1                    0                       # Read request sizes (log2)
system.mem_ctrls1.readPktSize::2                    0                       # Read request sizes (log2)
system.mem_ctrls1.readPktSize::3                    0                       # Read request sizes (log2)
system.mem_ctrls1.readPktSize::4                    0                       # Read request sizes (log2)
system.mem_ctrls1.readPktSize::5                    0                       # Read request sizes (log2)
system.mem_ctrls1.readPktSize::6               193941                       # Read request sizes (log2)
system.mem_ctrls1.writePktSize::0                   0                       # Write request sizes (log2)
system.mem_ctrls1.writePktSize::1                   0                       # Write request sizes (log2)
system.mem_ctrls1.writePktSize::2                   0                       # Write request sizes (log2)
system.mem_ctrls1.writePktSize::3                   0                       # Write request sizes (log2)
system.mem_ctrls1.writePktSize::4                   0                       # Write request sizes (log2)
system.mem_ctrls1.writePktSize::5                   0                       # Write request sizes (log2)
system.mem_ctrls1.writePktSize::6              122289                       # Write request sizes (log2)
system.mem_ctrls1.rdQLenPdf::0                  67643                       # What read queue length does an incoming req see
system.mem_ctrls1.rdQLenPdf::1                   1721                       # What read queue length does an incoming req see
system.mem_ctrls1.rdQLenPdf::2                   1378                       # What read queue length does an incoming req see
system.mem_ctrls1.rdQLenPdf::3                   1491                       # What read queue length does an incoming req see
system.mem_ctrls1.rdQLenPdf::4                   1604                       # What read queue length does an incoming req see
system.mem_ctrls1.rdQLenPdf::5                   1605                       # What read queue length does an incoming req see
system.mem_ctrls1.rdQLenPdf::6                   1703                       # What read queue length does an incoming req see
system.mem_ctrls1.rdQLenPdf::7                   1911                       # What read queue length does an incoming req see
system.mem_ctrls1.rdQLenPdf::8                   2007                       # What read queue length does an incoming req see
system.mem_ctrls1.rdQLenPdf::9                   1910                       # What read queue length does an incoming req see
system.mem_ctrls1.rdQLenPdf::10                  2003                       # What read queue length does an incoming req see
system.mem_ctrls1.rdQLenPdf::11                  2002                       # What read queue length does an incoming req see
system.mem_ctrls1.rdQLenPdf::12                  1958                       # What read queue length does an incoming req see
system.mem_ctrls1.rdQLenPdf::13                  1925                       # What read queue length does an incoming req see
system.mem_ctrls1.rdQLenPdf::14                  1940                       # What read queue length does an incoming req see
system.mem_ctrls1.rdQLenPdf::15                  2001                       # What read queue length does an incoming req see
system.mem_ctrls1.rdQLenPdf::16                  1978                       # What read queue length does an incoming req see
system.mem_ctrls1.rdQLenPdf::17                  2026                       # What read queue length does an incoming req see
system.mem_ctrls1.rdQLenPdf::18                  1956                       # What read queue length does an incoming req see
system.mem_ctrls1.rdQLenPdf::19                  2018                       # What read queue length does an incoming req see
system.mem_ctrls1.rdQLenPdf::20                  2044                       # What read queue length does an incoming req see
system.mem_ctrls1.rdQLenPdf::21                  2124                       # What read queue length does an incoming req see
system.mem_ctrls1.rdQLenPdf::22                  2136                       # What read queue length does an incoming req see
system.mem_ctrls1.rdQLenPdf::23                  2044                       # What read queue length does an incoming req see
system.mem_ctrls1.rdQLenPdf::24                  2097                       # What read queue length does an incoming req see
system.mem_ctrls1.rdQLenPdf::25                  2167                       # What read queue length does an incoming req see
system.mem_ctrls1.rdQLenPdf::26                  2353                       # What read queue length does an incoming req see
system.mem_ctrls1.rdQLenPdf::27                  2340                       # What read queue length does an incoming req see
system.mem_ctrls1.rdQLenPdf::28                  2387                       # What read queue length does an incoming req see
system.mem_ctrls1.rdQLenPdf::29                  2488                       # What read queue length does an incoming req see
system.mem_ctrls1.rdQLenPdf::30                  2757                       # What read queue length does an incoming req see
system.mem_ctrls1.rdQLenPdf::31                 66198                       # What read queue length does an incoming req see
system.mem_ctrls1.wrQLenPdf::0                  16357                       # What write queue length does an incoming req see
system.mem_ctrls1.wrQLenPdf::1                  17934                       # What write queue length does an incoming req see
system.mem_ctrls1.wrQLenPdf::2                  18618                       # What write queue length does an incoming req see
system.mem_ctrls1.wrQLenPdf::3                  19018                       # What write queue length does an incoming req see
system.mem_ctrls1.wrQLenPdf::4                  19578                       # What write queue length does an incoming req see
system.mem_ctrls1.wrQLenPdf::5                   8213                       # What write queue length does an incoming req see
system.mem_ctrls1.wrQLenPdf::6                   9275                       # What write queue length does an incoming req see
system.mem_ctrls1.wrQLenPdf::7                  13296                       # What write queue length does an incoming req see
system.mem_ctrls1.bytesPerActivate::samples        75687                       # Bytes accessed per row activation
system.mem_ctrls1.bytesPerActivate::mean   267.370618                       # Bytes accessed per row activation
system.mem_ctrls1.bytesPerActivate::gmean   194.705942                       # Bytes accessed per row activation
system.mem_ctrls1.bytesPerActivate::stdev   223.614126                       # Bytes accessed per row activation
system.mem_ctrls1.bytesPerActivate::0-127        18802     24.84%     24.84% # Bytes accessed per row activation
system.mem_ctrls1.bytesPerActivate::128-255        19941     26.35%     51.19% # Bytes accessed per row activation
system.mem_ctrls1.bytesPerActivate::256-383        21711     28.69%     79.87% # Bytes accessed per row activation
system.mem_ctrls1.bytesPerActivate::384-511         5266      6.96%     86.83% # Bytes accessed per row activation
system.mem_ctrls1.bytesPerActivate::512-639         3829      5.06%     91.89% # Bytes accessed per row activation
system.mem_ctrls1.bytesPerActivate::640-767         1835      2.42%     94.31% # Bytes accessed per row activation
system.mem_ctrls1.bytesPerActivate::768-895         1143      1.51%     95.82% # Bytes accessed per row activation
system.mem_ctrls1.bytesPerActivate::896-1023          834      1.10%     96.93% # Bytes accessed per row activation
system.mem_ctrls1.bytesPerActivate::1024-1151         2326      3.07%    100.00% # Bytes accessed per row activation
system.mem_ctrls1.bytesPerActivate::total        75687                       # Bytes accessed per row activation
system.mem_ctrls1.rdPerTurnAround::samples        17093                       # Reads before turning the bus around for writes
system.mem_ctrls1.rdPerTurnAround::mean     11.344703                       # Reads before turning the bus around for writes
system.mem_ctrls1.rdPerTurnAround::stdev    26.538157                       # Reads before turning the bus around for writes
system.mem_ctrls1.rdPerTurnAround::0-127        17085     99.95%     99.95% # Reads before turning the bus around for writes
system.mem_ctrls1.rdPerTurnAround::128-255            6      0.04%     99.99% # Reads before turning the bus around for writes
system.mem_ctrls1.rdPerTurnAround::1152-1279            1      0.01%     99.99% # Reads before turning the bus around for writes
system.mem_ctrls1.rdPerTurnAround::2816-2943            1      0.01%    100.00% # Reads before turning the bus around for writes
system.mem_ctrls1.rdPerTurnAround::total        17093                       # Reads before turning the bus around for writes
system.mem_ctrls1.wrPerTurnAround::samples        17093                       # Writes before turning the bus around for reads
system.mem_ctrls1.wrPerTurnAround::mean      7.154332                       # Writes before turning the bus around for reads
system.mem_ctrls1.wrPerTurnAround::gmean     6.493863                       # Writes before turning the bus around for reads
system.mem_ctrls1.wrPerTurnAround::stdev     3.587958                       # Writes before turning the bus around for reads
system.mem_ctrls1.wrPerTurnAround::4-7          12148     71.07%     71.07% # Writes before turning the bus around for reads
system.mem_ctrls1.wrPerTurnAround::8-11          2148     12.57%     83.64% # Writes before turning the bus around for reads
system.mem_ctrls1.wrPerTurnAround::12-15         1716     10.04%     93.68% # Writes before turning the bus around for reads
system.mem_ctrls1.wrPerTurnAround::16-19         1081      6.32%    100.00% # Writes before turning the bus around for reads
system.mem_ctrls1.wrPerTurnAround::total        17093                       # Writes before turning the bus around for reads
system.mem_ctrls1.totQLat                 30936930182                       # Total ticks spent queuing
system.mem_ctrls1.totMemAccLat            34572836432                       # Total ticks spent from burst creation until serviced by the DRAM
system.mem_ctrls1.totBusLat                 969575000                       # Total ticks spent in databus transfers
system.mem_ctrls1.avgQLat                   159538.61                       # Average queueing delay per DRAM burst
system.mem_ctrls1.avgBusLat                   5000.00                       # Average bus latency per DRAM burst
system.mem_ctrls1.avgMemAccLat              178288.61                       # Average memory access latency per DRAM burst
system.mem_ctrls1.avgRdBW                      218.75                       # Average DRAM read bandwidth in MiByte/s
system.mem_ctrls1.avgWrBW                      137.95                       # Average achieved write bandwidth in MiByte/s
system.mem_ctrls1.avgRdBWSys                   218.78                       # Average system read bandwidth in MiByte/s
system.mem_ctrls1.avgWrBWSys                   137.95                       # Average system write bandwidth in MiByte/s
system.mem_ctrls1.peakBW                     12800.00                       # Theoretical peak bandwidth in MiByte/s
system.mem_ctrls1.busUtil                        2.79                       # Data bus utilization in percentage
system.mem_ctrls1.busUtilRead                    1.71                       # Data bus utilization in percentage for reads
system.mem_ctrls1.busUtilWrite                   1.08                       # Data bus utilization in percentage for writes
system.mem_ctrls1.avgRdQLen                      1.58                       # Average read queue length when enqueuing
system.mem_ctrls1.avgWrQLen                      2.97                       # Average write queue length when enqueuing
system.mem_ctrls1.readRowHits                  154045                       # Number of row buffer hits during reads
system.mem_ctrls1.writeRowHits                  86464                       # Number of row buffer hits during writes
system.mem_ctrls1.readRowHitRate                79.44                       # Row buffer hit rate for reads
system.mem_ctrls1.writeRowHitRate               70.70                       # Row buffer hit rate for writes
system.mem_ctrls1.avgGap                    179406.80                       # Average gap between requests
system.mem_ctrls1.pageHitRate                   76.06                       # Row buffer hit rate, read and write combined
system.mem_ctrls1.memoryStateTime::IDLE   11892903750                       # Time in different power states
system.mem_ctrls1.memoryStateTime::REF     1894360000                       # Time in different power states
system.mem_ctrls1.memoryStateTime::PRE_PDN            0                       # Time in different power states
system.mem_ctrls1.memoryStateTime::ACT    42943627500                       # Time in different power states
system.mem_ctrls1.memoryStateTime::ACT_PDN            0                       # Time in different power states
system.mem_ctrls1.actEnergy::0              289752120                       # Energy for activate commands per rank (pJ)
system.mem_ctrls1.actEnergy::1              282396240                       # Energy for activate commands per rank (pJ)
system.mem_ctrls1.preEnergy::0              158098875                       # Energy for precharge commands per rank (pJ)
system.mem_ctrls1.preEnergy::1              154085250                       # Energy for precharge commands per rank (pJ)
system.mem_ctrls1.readEnergy::0             755001000                       # Energy for read commands per rank (pJ)
system.mem_ctrls1.readEnergy::1             757403400                       # Energy for read commands per rank (pJ)
system.mem_ctrls1.writeEnergy::0            396349200                       # Energy for write commands per rank (pJ)
system.mem_ctrls1.writeEnergy::1            396018720                       # Energy for write commands per rank (pJ)
system.mem_ctrls1.refreshEnergy::0         3705368160                       # Energy for refresh commands per rank (pJ)
system.mem_ctrls1.refreshEnergy::1         3705368160                       # Energy for refresh commands per rank (pJ)
system.mem_ctrls1.actBackEnergy::0        22088032380                       # Energy for active background per rank (pJ)
system.mem_ctrls1.actBackEnergy::1        21530297070                       # Energy for active background per rank (pJ)
system.mem_ctrls1.preBackEnergy::0        14663059500                       # Energy for precharge background per rank (pJ)
system.mem_ctrls1.preBackEnergy::1        15152301000                       # Energy for precharge background per rank (pJ)
system.mem_ctrls1.totalEnergy::0          42055661235                       # Total energy per rank (pJ)
system.mem_ctrls1.totalEnergy::1          41977869840                       # Total energy per rank (pJ)
system.mem_ctrls1.averagePower::0          741.318715                       # Core power per rank (mW)
system.mem_ctrls1.averagePower::1          739.947480                       # Core power per rank (mW)
system.mem_ctrls2.bytes_read::ruby.dir_cntrl2     12411840                       # Number of bytes read from this memory
system.mem_ctrls2.bytes_read::total          12411840                       # Number of bytes read from this memory
system.mem_ctrls2.bytes_written::ruby.dir_cntrl2      7826752                       # Number of bytes written to this memory
system.mem_ctrls2.bytes_written::total        7826752                       # Number of bytes written to this memory
system.mem_ctrls2.num_reads::ruby.dir_cntrl2       193935                       # Number of read requests responded to by this memory
system.mem_ctrls2.num_reads::total             193935                       # Number of read requests responded to by this memory
system.mem_ctrls2.num_writes::ruby.dir_cntrl2       122293                       # Number of write requests responded to by this memory
system.mem_ctrls2.num_writes::total            122293                       # Number of write requests responded to by this memory
system.mem_ctrls2.bw_read::ruby.dir_cntrl2    218770281                       # Total read bandwidth from this memory (bytes/s)
system.mem_ctrls2.bw_read::total            218770281                       # Total read bandwidth from this memory (bytes/s)
system.mem_ctrls2.bw_write::ruby.dir_cntrl2    137953819                       # Write bandwidth from this memory (bytes/s)
system.mem_ctrls2.bw_write::total           137953819                       # Write bandwidth from this memory (bytes/s)
system.mem_ctrls2.bw_total::ruby.dir_cntrl2    356724100                       # Total bandwidth to/from this memory (bytes/s)
system.mem_ctrls2.bw_total::total           356724100                       # Total bandwidth to/from this memory (bytes/s)
system.mem_ctrls2.readReqs                     193935                       # Number of read requests accepted
system.mem_ctrls2.writeReqs                    122293                       # Number of write requests accepted
system.mem_ctrls2.readBursts                   193935                       # Number of DRAM read bursts, including those serviced by the write queue
system.mem_ctrls2.writeBursts                  122293                       # Number of DRAM write bursts, including those merged in the write queue
system.mem_ctrls2.bytesReadDRAM              12410304                       # Total number of bytes read from DRAM
system.mem_ctrls2.bytesReadWrQ                   1536                       # Total number of bytes read from write queue
system.mem_ctrls2.bytesWritten                7826560                       # Total number of bytes written to DRAM
system.mem_ctrls2.bytesReadSys               12411840                       # Total read bytes from the system interface side
system.mem_ctrls2.bytesWrittenSys             7826752                       # Total written bytes from the system interface side
system.mem_ctrls2.servicedByWrQ                    24                       # Number of DRAM read bursts serviced by the write queue
system.mem_ctrls2.mergedWrBursts                    0                       # Number of DRAM write bursts merged with an existing one
system.mem_ctrls2.neitherReadNorWriteReqs            0                       # Number of requests that are neither read nor write
system.mem_ctrls2.perBankRdBursts::0            11877                       # Per bank write bursts
system.mem_ctrls2.perBankRdBursts::1            12025                       # Per bank write bursts
system.mem_ctrls2.perBankRdBursts::2            11873                       # Per bank write bursts
system.mem_ctrls2.perBankRdBursts::3            12225                       # Per bank write bursts
system.mem_ctrls2.perBankRdBursts::4            12007                       # Per bank write bursts
system.mem_ctrls2.perBankRdBursts::5            12084                       # Per bank write bursts
system.mem_ctrls2.perBankRdBursts::6            12289                       # Per bank write bursts
system.mem_ctrls2.perBankRdBursts::7            12457                       # Per bank write bursts
system.mem_ctrls2.perBankRdBursts::8            12203                       # Per bank write bursts
system.mem_ctrls2.perBankRdBursts::9            12561                       # Per bank write bursts
system.mem_ctrls2.perBankRdBursts::10           12212                       # Per bank write bursts
system.mem_ctrls2.perBankRdBursts::11           12569                       # Per bank write bursts
system.mem_ctrls2.perBankRdBursts::12           12051                       # Per bank write bursts
system.mem_ctrls2.perBankRdBursts::13           11780                       # Per bank write bursts
system.mem_ctrls2.perBankRdBursts::14           11985                       # Per bank write bursts
system.mem_ctrls2.perBankRdBursts::15           11713                       # Per bank write bursts
system.mem_ctrls2.perBankWrBursts::0             7583                       # Per bank write bursts
system.mem_ctrls2.perBankWrBursts::1             7472                       # Per bank write bursts
system.mem_ctrls2.perBankWrBursts::2             7606                       # Per bank write bursts
system.mem_ctrls2.perBankWrBursts::3             7640                       # Per bank write bursts
system.mem_ctrls2.perBankWrBursts::4             7597                       # Per bank write bursts
system.mem_ctrls2.perBankWrBursts::5             7672                       # Per bank write bursts
system.mem_ctrls2.perBankWrBursts::6             7769                       # Per bank write bursts
system.mem_ctrls2.perBankWrBursts::7             7816                       # Per bank write bursts
system.mem_ctrls2.perBankWrBursts::8             7712                       # Per bank write bursts
system.mem_ctrls2.perBankWrBursts::9             7861                       # Per bank write bursts
system.mem_ctrls2.perBankWrBursts::10            7662                       # Per bank write bursts
system.mem_ctrls2.perBankWrBursts::11            7719                       # Per bank write bursts
system.mem_ctrls2.perBankWrBursts::12            7557                       # Per bank write bursts
system.mem_ctrls2.perBankWrBursts::13            7593                       # Per bank write bursts
system.mem_ctrls2.perBankWrBursts::14            7600                       # Per bank write bursts
system.mem_ctrls2.perBankWrBursts::15            7431                       # Per bank write bursts
system.mem_ctrls2.numRdRetry                    63429                       # Number of times read queue was full causing retry
system.mem_ctrls2.numWrRetry                     6255                       # Number of times write queue was full causing retry
system.mem_ctrls2.totGap                  56734438000                       # Total gap between requests
system.mem_ctrls2.readPktSize::0                    0                       # Read request sizes (log2)
system.mem_ctrls2.readPktSize::1                    0                       # Read request sizes (log2)
system.mem_ctrls2.readPktSize::2                    0                       # Read request sizes (log2)
system.mem_ctrls2.readPktSize::3                    0                       # Read request sizes (log2)
system.mem_ctrls2.readPktSize::4                    0                       # Read request sizes (log2)
system.mem_ctrls2.readPktSize::5                    0                       # Read request sizes (log2)
system.mem_ctrls2.readPktSize::6               193935                       # Read request sizes (log2)
system.mem_ctrls2.writePktSize::0                   0                       # Write request sizes (log2)
system.mem_ctrls2.writePktSize::1                   0                       # Write request sizes (log2)
system.mem_ctrls2.writePktSize::2                   0                       # Write request sizes (log2)
system.mem_ctrls2.writePktSize::3                   0                       # Write request sizes (log2)
system.mem_ctrls2.writePktSize::4                   0                       # Write request sizes (log2)
system.mem_ctrls2.writePktSize::5                   0                       # Write request sizes (log2)
system.mem_ctrls2.writePktSize::6              122293                       # Write request sizes (log2)
system.mem_ctrls2.rdQLenPdf::0                  67737                       # What read queue length does an incoming req see
system.mem_ctrls2.rdQLenPdf::1                   1556                       # What read queue length does an incoming req see
system.mem_ctrls2.rdQLenPdf::2                   1395                       # What read queue length does an incoming req see
system.mem_ctrls2.rdQLenPdf::3                   1487                       # What read queue length does an incoming req see
system.mem_ctrls2.rdQLenPdf::4                   1590                       # What read queue length does an incoming req see
system.mem_ctrls2.rdQLenPdf::5                   1645                       # What read queue length does an incoming req see
system.mem_ctrls2.rdQLenPdf::6                   1739                       # What read queue length does an incoming req see
system.mem_ctrls2.rdQLenPdf::7                   1848                       # What read queue length does an incoming req see
system.mem_ctrls2.rdQLenPdf::8                   1825                       # What read queue length does an incoming req see
system.mem_ctrls2.rdQLenPdf::9                   1903                       # What read queue length does an incoming req see
system.mem_ctrls2.rdQLenPdf::10                  2027                       # What read queue length does an incoming req see
system.mem_ctrls2.rdQLenPdf::11                  1990                       # What read queue length does an incoming req see
system.mem_ctrls2.rdQLenPdf::12                  1904                       # What read queue length does an incoming req see
system.mem_ctrls2.rdQLenPdf::13                  1879                       # What read queue length does an incoming req see
system.mem_ctrls2.rdQLenPdf::14                  1892                       # What read queue length does an incoming req see
system.mem_ctrls2.rdQLenPdf::15                  1920                       # What read queue length does an incoming req see
system.mem_ctrls2.rdQLenPdf::16                  1926                       # What read queue length does an incoming req see
system.mem_ctrls2.rdQLenPdf::17                  1982                       # What read queue length does an incoming req see
system.mem_ctrls2.rdQLenPdf::18                  1984                       # What read queue length does an incoming req see
system.mem_ctrls2.rdQLenPdf::19                  2002                       # What read queue length does an incoming req see
system.mem_ctrls2.rdQLenPdf::20                  2021                       # What read queue length does an incoming req see
system.mem_ctrls2.rdQLenPdf::21                  2019                       # What read queue length does an incoming req see
system.mem_ctrls2.rdQLenPdf::22                  2017                       # What read queue length does an incoming req see
system.mem_ctrls2.rdQLenPdf::23                  2170                       # What read queue length does an incoming req see
system.mem_ctrls2.rdQLenPdf::24                  2279                       # What read queue length does an incoming req see
system.mem_ctrls2.rdQLenPdf::25                  2211                       # What read queue length does an incoming req see
system.mem_ctrls2.rdQLenPdf::26                  2191                       # What read queue length does an incoming req see
system.mem_ctrls2.rdQLenPdf::27                  2279                       # What read queue length does an incoming req see
system.mem_ctrls2.rdQLenPdf::28                  2366                       # What read queue length does an incoming req see
system.mem_ctrls2.rdQLenPdf::29                  2475                       # What read queue length does an incoming req see
system.mem_ctrls2.rdQLenPdf::30                  2679                       # What read queue length does an incoming req see
system.mem_ctrls2.rdQLenPdf::31                 66973                       # What read queue length does an incoming req see
system.mem_ctrls2.wrQLenPdf::0                  16320                       # What write queue length does an incoming req see
system.mem_ctrls2.wrQLenPdf::1                  17940                       # What write queue length does an incoming req see
system.mem_ctrls2.wrQLenPdf::2                  18698                       # What write queue length does an incoming req see
system.mem_ctrls2.wrQLenPdf::3                  19074                       # What write queue length does an incoming req see
system.mem_ctrls2.wrQLenPdf::4                  19581                       # What write queue length does an incoming req see
system.mem_ctrls2.wrQLenPdf::5                   8244                       # What write queue length does an incoming req see
system.mem_ctrls2.wrQLenPdf::6                   9331                       # What write queue length does an incoming req see
system.mem_ctrls2.wrQLenPdf::7                  13105                       # What write queue length does an incoming req see
system.mem_ctrls2.bytesPerActivate::samples        75705                       # Bytes accessed per row activation
system.mem_ctrls2.bytesPerActivate::mean   267.304511                       # Bytes accessed per row activation
system.mem_ctrls2.bytesPerActivate::gmean   195.283312                       # Bytes accessed per row activation
system.mem_ctrls2.bytesPerActivate::stdev   222.561351                       # Bytes accessed per row activation
system.mem_ctrls2.bytesPerActivate::0-127        18501     24.44%     24.44% # Bytes accessed per row activation
system.mem_ctrls2.bytesPerActivate::128-255        20070     26.51%     50.95% # Bytes accessed per row activation
system.mem_ctrls2.bytesPerActivate::256-383        22053     29.13%     80.08% # Bytes accessed per row activation
system.mem_ctrls2.bytesPerActivate::384-511         5226      6.90%     86.98% # Bytes accessed per row activation
system.mem_ctrls2.bytesPerActivate::512-639         3746      4.95%     91.93% # Bytes accessed per row activation
system.mem_ctrls2.bytesPerActivate::640-767         1837      2.43%     94.36% # Bytes accessed per row activation
system.mem_ctrls2.bytesPerActivate::768-895         1175      1.55%     95.91% # Bytes accessed per row activation
system.mem_ctrls2.bytesPerActivate::896-1023          790      1.04%     96.95% # Bytes accessed per row activation
system.mem_ctrls2.bytesPerActivate::1024-1151         2307      3.05%    100.00% # Bytes accessed per row activation
system.mem_ctrls2.bytesPerActivate::total        75705                       # Bytes accessed per row activation
system.mem_ctrls2.rdPerTurnAround::samples        17090                       # Reads before turning the bus around for writes
system.mem_ctrls2.rdPerTurnAround::mean     11.345875                       # Reads before turning the bus around for writes
system.mem_ctrls2.rdPerTurnAround::stdev    26.606682                       # Reads before turning the bus around for writes
system.mem_ctrls2.rdPerTurnAround::0-127        17082     99.95%     99.95% # Reads before turning the bus around for writes
system.mem_ctrls2.rdPerTurnAround::128-255            6      0.04%     99.99% # Reads before turning the bus around for writes
system.mem_ctrls2.rdPerTurnAround::1152-1279            1      0.01%     99.99% # Reads before turning the bus around for writes
system.mem_ctrls2.rdPerTurnAround::2816-2943            1      0.01%    100.00% # Reads before turning the bus around for writes
system.mem_ctrls2.rdPerTurnAround::total        17090                       # Reads before turning the bus around for writes
system.mem_ctrls2.wrPerTurnAround::samples        17090                       # Writes before turning the bus around for reads
system.mem_ctrls2.wrPerTurnAround::mean      7.155647                       # Writes before turning the bus around for reads
system.mem_ctrls2.wrPerTurnAround::gmean     6.494933                       # Writes before turning the bus around for reads
system.mem_ctrls2.wrPerTurnAround::stdev     3.587988                       # Writes before turning the bus around for reads
system.mem_ctrls2.wrPerTurnAround::4-7          12129     70.97%     70.97% # Writes before turning the bus around for reads
system.mem_ctrls2.wrPerTurnAround::8-11          2206     12.91%     83.88% # Writes before turning the bus around for reads
system.mem_ctrls2.wrPerTurnAround::12-15         1647      9.64%     93.52% # Writes before turning the bus around for reads
system.mem_ctrls2.wrPerTurnAround::16-19         1108      6.48%    100.00% # Writes before turning the bus around for reads
system.mem_ctrls2.wrPerTurnAround::total        17090                       # Writes before turning the bus around for reads
system.mem_ctrls2.totQLat                 31077884905                       # Total ticks spent queuing
system.mem_ctrls2.totMemAccLat            34713716155                       # Total ticks spent from burst creation until serviced by the DRAM
system.mem_ctrls2.totBusLat                 969555000                       # Total ticks spent in databus transfers
system.mem_ctrls2.avgQLat                   160268.81                       # Average queueing delay per DRAM burst
system.mem_ctrls2.avgBusLat                   5000.00                       # Average bus latency per DRAM burst
system.mem_ctrls2.avgMemAccLat              179018.81                       # Average memory access latency per DRAM burst
system.mem_ctrls2.avgRdBW                      218.74                       # Average DRAM read bandwidth in MiByte/s
system.mem_ctrls2.avgWrBW                      137.95                       # Average achieved write bandwidth in MiByte/s
system.mem_ctrls2.avgRdBWSys                   218.77                       # Average system read bandwidth in MiByte/s
system.mem_ctrls2.avgWrBWSys                   137.95                       # Average system write bandwidth in MiByte/s
system.mem_ctrls2.peakBW                     12800.00                       # Theoretical peak bandwidth in MiByte/s
system.mem_ctrls2.busUtil                        2.79                       # Data bus utilization in percentage
system.mem_ctrls2.busUtilRead                    1.71                       # Data bus utilization in percentage for reads
system.mem_ctrls2.busUtilWrite                   1.08                       # Data bus utilization in percentage for writes
system.mem_ctrls2.avgRdQLen                      1.57                       # Average read queue length when enqueuing
system.mem_ctrls2.avgWrQLen                      2.93                       # Average write queue length when enqueuing
system.mem_ctrls2.readRowHits                  153914                       # Number of row buffer hits during reads
system.mem_ctrls2.writeRowHits                  86576                       # Number of row buffer hits during writes
system.mem_ctrls2.readRowHitRate                79.37                       # Row buffer hit rate for reads
system.mem_ctrls2.writeRowHitRate               70.79                       # Row buffer hit rate for writes
system.mem_ctrls2.avgGap                    179409.91                       # Average gap between requests
system.mem_ctrls2.pageHitRate                   76.06                       # Row buffer hit rate, read and write combined
system.mem_ctrls2.memoryStateTime::IDLE   11874925750                       # Time in different power states
system.mem_ctrls2.memoryStateTime::REF     1894360000                       # Time in different power states
system.mem_ctrls2.memoryStateTime::PRE_PDN            0                       # Time in different power states
system.mem_ctrls2.memoryStateTime::ACT    42961740250                       # Time in different power states
system.mem_ctrls2.memoryStateTime::ACT_PDN            0                       # Time in different power states
system.mem_ctrls2.actEnergy::0              289071720                       # Energy for activate commands per rank (pJ)
system.mem_ctrls2.actEnergy::1              283197600                       # Energy for activate commands per rank (pJ)
system.mem_ctrls2.preEnergy::0              157727625                       # Energy for precharge commands per rank (pJ)
system.mem_ctrls2.preEnergy::1              154522500                       # Energy for precharge commands per rank (pJ)
system.mem_ctrls2.readEnergy::0             755281800                       # Energy for read commands per rank (pJ)
system.mem_ctrls2.readEnergy::1             757091400                       # Energy for read commands per rank (pJ)
system.mem_ctrls2.writeEnergy::0            396245520                       # Energy for write commands per rank (pJ)
system.mem_ctrls2.writeEnergy::1            396154800                       # Energy for write commands per rank (pJ)
system.mem_ctrls2.refreshEnergy::0         3705368160                       # Energy for refresh commands per rank (pJ)
system.mem_ctrls2.refreshEnergy::1         3705368160                       # Energy for refresh commands per rank (pJ)
system.mem_ctrls2.actBackEnergy::0        21840362820                       # Energy for active background per rank (pJ)
system.mem_ctrls2.actBackEnergy::1        21337727985                       # Energy for active background per rank (pJ)
system.mem_ctrls2.preBackEnergy::0        14880347250                       # Energy for precharge background per rank (pJ)
system.mem_ctrls2.preBackEnergy::1        15321255000                       # Energy for precharge background per rank (pJ)
system.mem_ctrls2.totalEnergy::0          42024404895                       # Total energy per rank (pJ)
system.mem_ctrls2.totalEnergy::1          41955317445                       # Total energy per rank (pJ)
system.mem_ctrls2.averagePower::0          740.767023                       # Core power per rank (mW)
system.mem_ctrls2.averagePower::1          739.549214                       # Core power per rank (mW)
system.mem_ctrls3.bytes_read::ruby.dir_cntrl3     12390720                       # Number of bytes read from this memory
system.mem_ctrls3.bytes_read::total          12390720                       # Number of bytes read from this memory
system.mem_ctrls3.bytes_written::ruby.dir_cntrl3      7824768                       # Number of bytes written to this memory
system.mem_ctrls3.bytes_written::total        7824768                       # Number of bytes written to this memory
system.mem_ctrls3.num_reads::ruby.dir_cntrl3       193605                       # Number of read requests responded to by this memory
system.mem_ctrls3.num_reads::total             193605                       # Number of read requests responded to by this memory
system.mem_ctrls3.num_writes::ruby.dir_cntrl3       122262                       # Number of write requests responded to by this memory
system.mem_ctrls3.num_writes::total            122262                       # Number of write requests responded to by this memory
system.mem_ctrls3.bw_read::ruby.dir_cntrl3    218398021                       # Total read bandwidth from this memory (bytes/s)
system.mem_ctrls3.bw_read::total            218398021                       # Total read bandwidth from this memory (bytes/s)
system.mem_ctrls3.bw_write::ruby.dir_cntrl3    137918849                       # Write bandwidth from this memory (bytes/s)
system.mem_ctrls3.bw_write::total           137918849                       # Write bandwidth from this memory (bytes/s)
system.mem_ctrls3.bw_total::ruby.dir_cntrl3    356316871                       # Total bandwidth to/from this memory (bytes/s)
system.mem_ctrls3.bw_total::total           356316871                       # Total bandwidth to/from this memory (bytes/s)
system.mem_ctrls3.readReqs                     193605                       # Number of read requests accepted
system.mem_ctrls3.writeReqs                    122262                       # Number of write requests accepted
system.mem_ctrls3.readBursts                   193605                       # Number of DRAM read bursts, including those serviced by the write queue
system.mem_ctrls3.writeBursts                  122262                       # Number of DRAM write bursts, including those merged in the write queue
system.mem_ctrls3.bytesReadDRAM              12389696                       # Total number of bytes read from DRAM
system.mem_ctrls3.bytesReadWrQ                   1024                       # Total number of bytes read from write queue
system.mem_ctrls3.bytesWritten                7824576                       # Total number of bytes written to DRAM
system.mem_ctrls3.bytesReadSys               12390720                       # Total read bytes from the system interface side
system.mem_ctrls3.bytesWrittenSys             7824768                       # Total written bytes from the system interface side
system.mem_ctrls3.servicedByWrQ                    16                       # Number of DRAM read bursts serviced by the write queue
system.mem_ctrls3.mergedWrBursts                    0                       # Number of DRAM write bursts merged with an existing one
system.mem_ctrls3.neitherReadNorWriteReqs            0                       # Number of requests that are neither read nor write
system.mem_ctrls3.perBankRdBursts::0            11865                       # Per bank write bursts
system.mem_ctrls3.perBankRdBursts::1            11981                       # Per bank write bursts
system.mem_ctrls3.perBankRdBursts::2            11814                       # Per bank write bursts
system.mem_ctrls3.perBankRdBursts::3            12184                       # Per bank write bursts
system.mem_ctrls3.perBankRdBursts::4            11955                       # Per bank write bursts
system.mem_ctrls3.perBankRdBursts::5            12060                       # Per bank write bursts
system.mem_ctrls3.perBankRdBursts::6            12266                       # Per bank write bursts
system.mem_ctrls3.perBankRdBursts::7            12445                       # Per bank write bursts
system.mem_ctrls3.perBankRdBursts::8            12205                       # Per bank write bursts
system.mem_ctrls3.perBankRdBursts::9            12554                       # Per bank write bursts
system.mem_ctrls3.perBankRdBursts::10           12239                       # Per bank write bursts
system.mem_ctrls3.perBankRdBursts::11           12496                       # Per bank write bursts
system.mem_ctrls3.perBankRdBursts::12           12042                       # Per bank write bursts
system.mem_ctrls3.perBankRdBursts::13           11776                       # Per bank write bursts
system.mem_ctrls3.perBankRdBursts::14           12002                       # Per bank write bursts
system.mem_ctrls3.perBankRdBursts::15           11705                       # Per bank write bursts
system.mem_ctrls3.perBankWrBursts::0             7589                       # Per bank write bursts
system.mem_ctrls3.perBankWrBursts::1             7461                       # Per bank write bursts
system.mem_ctrls3.perBankWrBursts::2             7604                       # Per bank write bursts
system.mem_ctrls3.perBankWrBursts::3             7628                       # Per bank write bursts
system.mem_ctrls3.perBankWrBursts::4             7592                       # Per bank write bursts
system.mem_ctrls3.perBankWrBursts::5             7672                       # Per bank write bursts
system.mem_ctrls3.perBankWrBursts::6             7770                       # Per bank write bursts
system.mem_ctrls3.perBankWrBursts::7             7807                       # Per bank write bursts
system.mem_ctrls3.perBankWrBursts::8             7711                       # Per bank write bursts
system.mem_ctrls3.perBankWrBursts::9             7862                       # Per bank write bursts
system.mem_ctrls3.perBankWrBursts::10            7665                       # Per bank write bursts
system.mem_ctrls3.perBankWrBursts::11            7727                       # Per bank write bursts
system.mem_ctrls3.perBankWrBursts::12            7554                       # Per bank write bursts
system.mem_ctrls3.perBankWrBursts::13            7600                       # Per bank write bursts
system.mem_ctrls3.perBankWrBursts::14            7596                       # Per bank write bursts
system.mem_ctrls3.perBankWrBursts::15            7421                       # Per bank write bursts
system.mem_ctrls3.numRdRetry                    56812                       # Number of times read queue was full causing retry
system.mem_ctrls3.numWrRetry                     6142                       # Number of times write queue was full causing retry
system.mem_ctrls3.totGap                  56733538000                       # Total gap between requests
system.mem_ctrls3.readPktSize::0                    0                       # Read request sizes (log2)
system.mem_ctrls3.readPktSize::1                    0                       # Read request sizes (log2)
system.mem_ctrls3.readPktSize::2                    0                       # Read request sizes (log2)
system.mem_ctrls3.readPktSize::3                    0                       # Read request sizes (log2)
system.mem_ctrls3.readPktSize::4                    0                       # Read request sizes (log2)
system.mem_ctrls3.readPktSize::5                    0                       # Read request sizes (log2)
system.mem_ctrls3.readPktSize::6               193605                       # Read request sizes (log2)
system.mem_ctrls3.writePktSize::0                   0                       # Write request sizes (log2)
system.mem_ctrls3.writePktSize::1                   0                       # Write request sizes (log2)
system.mem_ctrls3.writePktSize::2                   0                       # Write request sizes (log2)
system.mem_ctrls3.writePktSize::3                   0                       # Write request sizes (log2)
system.mem_ctrls3.writePktSize::4                   0                       # Write request sizes (log2)
system.mem_ctrls3.writePktSize::5                   0                       # Write request sizes (log2)
system.mem_ctrls3.writePktSize::6              122262                       # Write request sizes (log2)
system.mem_ctrls3.rdQLenPdf::0                  67371                       # What read queue length does an incoming req see
system.mem_ctrls3.rdQLenPdf::1                   1638                       # What read queue length does an incoming req see
system.mem_ctrls3.rdQLenPdf::2                   1418                       # What read queue length does an incoming req see
system.mem_ctrls3.rdQLenPdf::3                   1519                       # What read queue length does an incoming req see
system.mem_ctrls3.rdQLenPdf::4                   1697                       # What read queue length does an incoming req see
system.mem_ctrls3.rdQLenPdf::5                   1751                       # What read queue length does an incoming req see
system.mem_ctrls3.rdQLenPdf::6                   1889                       # What read queue length does an incoming req see
system.mem_ctrls3.rdQLenPdf::7                   1875                       # What read queue length does an incoming req see
system.mem_ctrls3.rdQLenPdf::8                   1965                       # What read queue length does an incoming req see
system.mem_ctrls3.rdQLenPdf::9                   2077                       # What read queue length does an incoming req see
system.mem_ctrls3.rdQLenPdf::10                  2081                       # What read queue length does an incoming req see
system.mem_ctrls3.rdQLenPdf::11                  2091                       # What read queue length does an incoming req see
system.mem_ctrls3.rdQLenPdf::12                  2048                       # What read queue length does an incoming req see
system.mem_ctrls3.rdQLenPdf::13                  2074                       # What read queue length does an incoming req see
system.mem_ctrls3.rdQLenPdf::14                  2165                       # What read queue length does an incoming req see
system.mem_ctrls3.rdQLenPdf::15                  2242                       # What read queue length does an incoming req see
system.mem_ctrls3.rdQLenPdf::16                  2208                       # What read queue length does an incoming req see
system.mem_ctrls3.rdQLenPdf::17                  2166                       # What read queue length does an incoming req see
system.mem_ctrls3.rdQLenPdf::18                  2192                       # What read queue length does an incoming req see
system.mem_ctrls3.rdQLenPdf::19                  2314                       # What read queue length does an incoming req see
system.mem_ctrls3.rdQLenPdf::20                  2381                       # What read queue length does an incoming req see
system.mem_ctrls3.rdQLenPdf::21                  2454                       # What read queue length does an incoming req see
system.mem_ctrls3.rdQLenPdf::22                  2484                       # What read queue length does an incoming req see
system.mem_ctrls3.rdQLenPdf::23                  2494                       # What read queue length does an incoming req see
system.mem_ctrls3.rdQLenPdf::24                  2486                       # What read queue length does an incoming req see
[...]
system.ruby.L2Cache_Controller.IS.Mem_Data::total        13503                      
system.ruby.L2Cache_Controller.IM.L1_GETX |           2    100.00%    100.00% |           0      0.00%    100.00% |           0      0.00%    100.00% |           0      0.00%    100.00% |           0      0.00%    100.00% |           0      0.00%    100.00% |           0      0.00%    100.00% |           0      0.00%    100.00% |           0      0.00%    100.00% |           0      0.00%    100.00% |           0      0.00%    100.00% |           0      0.00%    100.00% |           0      0.00%    100.00% |           0      0.00%    100.00% |           0      0.00%    100.00% |           0      0.00%    100.00% |           0      0.00%    100.00% |           0      0.00%    100.00% |           0      0.00%    100.00% |           0      0.00%    100.00% |           0      0.00%    100.00% |           0      0.00%    100.00% |           0      0.00%    100.00% |           0      0.00%    100.00% |           0      0.00%    100.00% |           0      0.00%    100.00% |           0      0.00%    100.00% |           0      0.00%    100.00% |           0      0.00%    100.00% |           0      0.00%    100.00% |           0      0.00%    100.00% |           0      0.00%    100.00%
system.ruby.L2Cache_Controller.IM.L1_GETX::total            2                      
system.ruby.L2Cache_Controller.IM.Mem_Data |       14975      3.14%      3.14% |       14885      3.12%      6.26% |       14890      3.12%      9.39% |       14891      3.12%     12.51% |       14883      3.12%     15.63% |       14891      3.12%     18.76% |       14894      3.12%     21.88% |       14887      3.12%     25.00% |       14895      3.12%     28.13% |       14899      3.13%     31.25% |       14880      3.12%     34.38% |       14902      3.13%     37.50% |       14892      3.12%     40.63% |       14893      3.12%     43.75% |       14888      3.12%     46.87% |       14883      3.12%     49.99% |       14921      3.13%     53.12% |       14895      3.12%     56.25% |       14897      3.12%     59.37% |       14901      3.13%     62.50% |       14914      3.13%     65.63% |       14921      3.13%     68.76% |       14886      3.12%     71.88% |       14898      3.13%     75.01% |       14909      3.13%     78.13% |       14899      3.13%     81.26% |       14901      3.13%     84.38% |       14892      3.12%     87.51% |       14887      3.12%     90.63% |       14883      3.12%     93.75% |       14895      3.12%     96.88% |       14881      3.12%    100.00%
system.ruby.L2Cache_Controller.IM.Mem_Data::total       476708                      
system.ruby.L2Cache_Controller.SS_MB.Exclusive_Unblock |           3      6.12%      6.12% |           6     12.24%     18.37% |           2      4.08%     22.45% |           3      6.12%     28.57% |           0      0.00%     28.57% |           0      0.00%     28.57% |           0      0.00%     28.57% |           0      0.00%     28.57% |           1      2.04%     30.61% |           0      0.00%     30.61% |           0      0.00%     30.61% |           1      2.04%     32.65% |           4      8.16%     40.82% |           0      0.00%     40.82% |           2      4.08%     44.90% |           0      0.00%     44.90% |           1      2.04%     46.94% |           2      4.08%     51.02% |          13     26.53%     77.55% |           3      6.12%     83.67% |           0      0.00%     83.67% |           0      0.00%     83.67% |           0      0.00%     83.67% |           0      0.00%     83.67% |           1      2.04%     85.71% |           0      0.00%     85.71% |           3      6.12%     91.84% |           4      8.16%    100.00% |           0      0.00%    100.00% |           0      0.00%    100.00% |           0      0.00%    100.00% |           0      0.00%    100.00%
system.ruby.L2Cache_Controller.SS_MB.Exclusive_Unblock::total           49                      
system.ruby.L2Cache_Controller.MT_MB.L1_GETS |           0      0.00%      0.00% |           0      0.00%      0.00% |           0      0.00%      0.00% |           1    100.00%    100.00% |           0      0.00%    100.00% |           0      0.00%    100.00% |           0      0.00%    100.00% |           0      0.00%    100.00% |           0      0.00%    100.00% |           0      0.00%    100.00% |           0      0.00%    100.00% |           0      0.00%    100.00% |           0      0.00%    100.00% |           0      0.00%    100.00% |           0      0.00%    100.00% |           0      0.00%    100.00% |           0      0.00%    100.00% |           0      0.00%    100.00% |           0      0.00%    100.00% |           0      0.00%    100.00% |           0      0.00%    100.00% |           0      0.00%    100.00% |           0      0.00%    100.00% |           0      0.00%    100.00% |           0      0.00%    100.00% |           0      0.00%    100.00% |           0      0.00%    100.00% |           0      0.00%    100.00% |           0      0.00%    100.00% |           0      0.00%    100.00% |           0      0.00%    100.00% |           0      0.00%    100.00%
system.ruby.L2Cache_Controller.MT_MB.L1_GETS::total            1                      
system.ruby.L2Cache_Controller.MT_MB.Exclusive_Unblock |       75916      7.22%      7.22% |       32861      3.13%     10.35% |       29492      2.81%     13.16% |       32395      3.08%     16.24% |       29786      2.83%     19.07% |       29679      2.82%     21.90% |       29095      2.77%     24.66% |       29698      2.83%     27.49% |       30394      2.89%     30.38% |       29990      2.85%     33.23% |       32545      3.10%     36.33% |       30868      2.94%     39.27% |       30517      2.90%     42.17% |       30305      2.88%     45.06% |       29597      2.82%     47.87% |       30193      2.87%     50.74% |       31504      3.00%     53.74% |       30314      2.88%     56.63% |       30921      2.94%     59.57% |       31635      3.01%     62.58% |       32124      3.06%     65.63% |       37031      3.52%     69.16% |       31242      2.97%     72.13% |       31248      2.97%     75.10% |       31253      2.97%     78.08% |       31241      2.97%     81.05% |       31170      2.97%     84.01% |       30877      2.94%     86.95% |       32694      3.11%     90.06% |       32158      3.06%     93.12% |       34142      3.25%     96.37% |       38139      3.63%    100.00%
system.ruby.L2Cache_Controller.MT_MB.Exclusive_Unblock::total      1051024                      
system.ruby.L2Cache_Controller.MT_IIB.WB_Data |           1      1.27%      1.27% |           2      2.53%      3.80% |           1      1.27%      5.06% |           3      3.80%      8.86% |           3      3.80%     12.66% |           3      3.80%     16.46% |           4      5.06%     21.52% |           3      3.80%     25.32% |           5      6.33%     31.65% |           3      3.80%     35.44% |           2      2.53%     37.97% |           2      2.53%     40.51% |           3      3.80%     44.30% |           3      3.80%     48.10% |           4      5.06%     53.16% |           3      3.80%     56.96% |           3      3.80%     60.76% |           1      1.27%     62.03% |           1      1.27%     63.29% |           0      0.00%     63.29% |           1      1.27%     64.56% |           0      0.00%     64.56% |           1      1.27%     65.82% |           2      2.53%     68.35% |           3      3.80%     72.15% |           5      6.33%     78.48% |           4      5.06%     83.54% |           5      6.33%     89.87% |           3      3.80%     93.67% |           1      1.27%     94.94% |           2      2.53%     97.47% |           2      2.53%    100.00%
system.ruby.L2Cache_Controller.MT_IIB.WB_Data::total           79                      
system.ruby.L2Cache_Controller.MT_IIB.WB_Data_clean |          28     39.44%     39.44% |           0      0.00%     39.44% |           0      0.00%     39.44% |          13     18.31%     57.75% |           0      0.00%     57.75% |           0      0.00%     57.75% |           0      0.00%     57.75% |           0      0.00%     57.75% |           0      0.00%     57.75% |           0      0.00%     57.75% |           0      0.00%     57.75% |           0      0.00%     57.75% |           0      0.00%     57.75% |           0      0.00%     57.75% |           0      0.00%     57.75% |           0      0.00%     57.75% |          12     16.90%     74.65% |           0      0.00%     74.65% |           0      0.00%     74.65% |          16     22.54%     97.18% |           0      0.00%     97.18% |           0      0.00%     97.18% |           0      0.00%     97.18% |           0      0.00%     97.18% |           0      0.00%     97.18% |           0      0.00%     97.18% |           0      0.00%     97.18% |           2      2.82%    100.00% |           0      0.00%    100.00% |           0      0.00%    100.00% |           0      0.00%    100.00% |           0      0.00%    100.00%
system.ruby.L2Cache_Controller.MT_IIB.WB_Data_clean::total           71                      
system.ruby.L2Cache_Controller.MT_IIB.Unblock |           0      0.00%      0.00% |           0      0.00%      0.00% |           0      0.00%      0.00% |           1     33.33%     33.33% |           0      0.00%     33.33% |           0      0.00%     33.33% |           0      0.00%     33.33% |           0      0.00%     33.33% |           0      0.00%     33.33% |           0      0.00%     33.33% |           0      0.00%     33.33% |           0      0.00%     33.33% |           0      0.00%     33.33% |           0      0.00%     33.33% |           0      0.00%     33.33% |           0      0.00%     33.33% |           0      0.00%     33.33% |           0      0.00%     33.33% |           1     33.33%     66.67% |           0      0.00%     66.67% |           0      0.00%     66.67% |           0      0.00%     66.67% |           0      0.00%     66.67% |           0      0.00%     66.67% |           0      0.00%     66.67% |           0      0.00%     66.67% |           0      0.00%     66.67% |           0      0.00%     66.67% |           0      0.00%     66.67% |           1     33.33%    100.00% |           0      0.00%    100.00% |           0      0.00%    100.00%
system.ruby.L2Cache_Controller.MT_IIB.Unblock::total            3                      
system.ruby.L2Cache_Controller.MT_IB.WB_Data |           0      0.00%      0.00% |           0      0.00%      0.00% |           0      0.00%      0.00% |           0      0.00%      0.00% |           0      0.00%      0.00% |           0      0.00%      0.00% |           0      0.00%      0.00% |           0      0.00%      0.00% |           0      0.00%      0.00% |           0      0.00%      0.00% |           0      0.00%      0.00% |           0      0.00%      0.00% |           0      0.00%      0.00% |           0      0.00%      0.00% |           0      0.00%      0.00% |           0      0.00%      0.00% |           0      0.00%      0.00% |           0      0.00%      0.00% |           1     50.00%     50.00% |           0      0.00%     50.00% |           0      0.00%     50.00% |           0      0.00%     50.00% |           0      0.00%     50.00% |           0      0.00%     50.00% |           0      0.00%     50.00% |           0      0.00%     50.00% |           0      0.00%     50.00% |           0      0.00%     50.00% |           0      0.00%     50.00% |           1     50.00%    100.00% |           0      0.00%    100.00% |           0      0.00%    100.00%
system.ruby.L2Cache_Controller.MT_IB.WB_Data::total            2                      
system.ruby.L2Cache_Controller.MT_IB.WB_Data_clean |           0      0.00%      0.00% |           0      0.00%      0.00% |           0      0.00%      0.00% |           1    100.00%    100.00% |           0      0.00%    100.00% |           0      0.00%    100.00% |           0      0.00%    100.00% |           0      0.00%    100.00% |           0      0.00%    100.00% |           0      0.00%    100.00% |           0      0.00%    100.00% |           0      0.00%    100.00% |           0      0.00%    100.00% |           0      0.00%    100.00% |           0      0.00%    100.00% |           0      0.00%    100.00% |           0      0.00%    100.00% |           0      0.00%    100.00% |           0      0.00%    100.00% |           0      0.00%    100.00% |           0      0.00%    100.00% |           0      0.00%    100.00% |           0      0.00%    100.00% |           0      0.00%    100.00% |           0      0.00%    100.00% |           0      0.00%    100.00% |           0      0.00%    100.00% |           0      0.00%    100.00% |           0      0.00%    100.00% |           0      0.00%    100.00% |           0      0.00%    100.00% |           0      0.00%    100.00%
system.ruby.L2Cache_Controller.MT_IB.WB_Data_clean::total            1                      
system.ruby.L2Cache_Controller.MT_SB.Unblock |          29     19.33%     19.33% |           2      1.33%     20.67% |           1      0.67%     21.33% |          16     10.67%     32.00% |           3      2.00%     34.00% |           3      2.00%     36.00% |           4      2.67%     38.67% |           3      2.00%     40.67% |           5      3.33%     44.00% |           3      2.00%     46.00% |           2      1.33%     47.33% |           2      1.33%     48.67% |           3      2.00%     50.67% |           3      2.00%     52.67% |           4      2.67%     55.33% |           3      2.00%     57.33% |          15     10.00%     67.33% |           1      0.67%     68.00% |           1      0.67%     68.67% |          16     10.67%     79.33% |           1      0.67%     80.00% |           0      0.00%     80.00% |           1      0.67%     80.67% |           2      1.33%     82.00% |           3      2.00%     84.00% |           5      3.33%     87.33% |           4      2.67%     90.00% |           7      4.67%     94.67% |           3      2.00%     96.67% |           1      0.67%     97.33% |           2      1.33%     98.67% |           2      1.33%    100.00%
system.ruby.L2Cache_Controller.MT_SB.Unblock::total          150                      
system.ruby.SimicsNetworkPortInterface_Controller.MessageSend |       54872     16.72%     16.72% |      164044     50.00%     66.72% |       13669      4.17%     70.89% |       14546      4.43%     75.32% |       13529      4.12%     79.45% |       14333      4.37%     83.82% |       13548      4.13%     87.95% |       14659      4.47%     92.41% |       12200      3.72%     96.13% |       12688      3.87%    100.00% |           0      0.00%    100.00% |           0      0.00%    100.00% |           0      0.00%    100.00% |           0      0.00%    100.00% |           0      0.00%    100.00% |           0      0.00%    100.00% |           0      0.00%    100.00% |           0      0.00%    100.00% |           0      0.00%    100.00% |           0      0.00%    100.00% |           0      0.00%    100.00% |           0      0.00%    100.00% |           0      0.00%    100.00% |           0      0.00%    100.00% |           0      0.00%    100.00% |           0      0.00%    100.00% |           0      0.00%    100.00% |           0      0.00%    100.00% |           0      0.00%    100.00% |           0      0.00%    100.00% |           0      0.00%    100.00% |           0      0.00%    100.00%
system.ruby.SimicsNetworkPortInterface_Controller.MessageSend::total       328088                      
system.ruby.SimicsNetworkPortInterface_Controller.MessageRecv |       54872     16.72%     16.72% |      164044     50.00%     66.72% |       13669      4.17%     70.89% |       14546      4.43%     75.32% |       13529      4.12%     79.45% |       14333      4.37%     83.82% |       13548      4.13%     87.95% |       14659      4.47%     92.41% |       12200      3.72%     96.13% |       12688      3.87%    100.00% |           0      0.00%    100.00% |           0      0.00%    100.00% |           0      0.00%    100.00% |           0      0.00%    100.00% |           0      0.00%    100.00% |           0      0.00%    100.00% |           0      0.00%    100.00% |           0      0.00%    100.00% |           0      0.00%    100.00% |           0      0.00%    100.00% |           0      0.00%    100.00% |           0      0.00%    100.00% |           0      0.00%    100.00% |           0      0.00%    100.00% |           0      0.00%    100.00% |           0      0.00%    100.00% |           0      0.00%    100.00% |           0      0.00%    100.00% |           0      0.00%    100.00% |           0      0.00%    100.00% |           0      0.00%    100.00% |           0      0.00%    100.00%
system.ruby.SimicsNetworkPortInterface_Controller.MessageRecv::total       328088                      
system.ruby.SimicsNetworkPortInterface_Controller.A.MessageSend |       54872     16.72%     16.72% |      164044     50.00%     66.72% |       13669      4.17%     70.89% |       14546      4.43%     75.32% |       13529      4.12%     79.45% |       14333      4.37%     83.82% |       13548      4.13%     87.95% |       14659      4.47%     92.41% |       12200      3.72%     96.13% |       12688      3.87%    100.00% |           0      0.00%    100.00% |           0      0.00%    100.00% |           0      0.00%    100.00% |           0      0.00%    100.00% |           0      0.00%    100.00% |           0      0.00%    100.00% |           0      0.00%    100.00% |           0      0.00%    100.00% |           0      0.00%    100.00% |           0      0.00%    100.00% |           0      0.00%    100.00% |           0      0.00%    100.00% |           0      0.00%    100.00% |           0      0.00%    100.00% |           0      0.00%    100.00% |           0      0.00%    100.00% |           0      0.00%    100.00% |           0      0.00%    100.00% |           0      0.00%    100.00% |           0      0.00%    100.00% |           0      0.00%    100.00% |           0      0.00%    100.00%
system.ruby.SimicsNetworkPortInterface_Controller.A.MessageSend::total       328088                      
system.ruby.SimicsNetworkPortInterface_Controller.A.MessageRecv |       54872     16.72%     16.72% |      164044     50.00%     66.72% |       13669      4.17%     70.89% |       14546      4.43%     75.32% |       13529      4.12%     79.45% |       14333      4.37%     83.82% |       13548      4.13%     87.95% |       14659      4.47%     92.41% |       12200      3.72%     96.13% |       12688      3.87%    100.00% |           0      0.00%    100.00% |           0      0.00%    100.00% |           0      0.00%    100.00% |           0      0.00%    100.00% |           0      0.00%    100.00% |           0      0.00%    100.00% |           0      0.00%    100.00% |           0      0.00%    100.00% |           0      0.00%    100.00% |           0      0.00%    100.00% |           0      0.00%    100.00% |           0      0.00%    100.00% |           0      0.00%    100.00% |           0      0.00%    100.00% |           0      0.00%    100.00% |           0      0.00%    100.00% |           0      0.00%    100.00% |           0      0.00%    100.00% |           0      0.00%    100.00% |           0      0.00%    100.00% |           0      0.00%    100.00% |           0      0.00%    100.00%
system.ruby.SimicsNetworkPortInterface_Controller.A.MessageRecv::total       328088                      
system.switch_cpus.kern.inst.arm                    0                       # number of arm instructions executed
system.switch_cpus.kern.inst.quiesce                0                       # number of quiesce instructions executed

---------- End Simulation Statistics   ----------
