
---------- Begin Simulation Statistics ----------
sim_seconds                                  0.040512                       # Number of seconds simulated
sim_ticks                                 40511718500                       # Number of ticks simulated
final_tick                               5216679797000                       # Number of ticks from beginning of simulation (restored from checkpoints and never reset)
sim_freq                                 1000000000000                       # Frequency of simulated ticks
host_inst_rate                                  54493                       # Simulator instruction rate (inst/s)
host_op_rate                                    94763                       # Simulator op (including micro ops) rate (op/s)
host_tick_rate                              108810044                       # Simulator tick rate (ticks/s)
host_mem_usage                                3206368                       # Number of bytes of host memory used
host_seconds                                   372.32                       # Real time elapsed on the host
sim_insts                                    20288621                       # Number of instructions simulated
sim_ops                                      35281805                       # Number of ops (including micro ops) simulated
system.voltage_domain.voltage                       1                       # Voltage in Volts
system.clk_domain.clock                           500                       # Clock period in ticks
system.mem_ctrls0.bytes_read::ruby.dir_cntrl0      4690880                       # Number of bytes read from this memory
system.mem_ctrls0.bytes_read::total           4690880                       # Number of bytes read from this memory
system.mem_ctrls0.bytes_written::ruby.dir_cntrl0      2862528                       # Number of bytes written to this memory
system.mem_ctrls0.bytes_written::total        2862528                       # Number of bytes written to this memory
system.mem_ctrls0.num_reads::ruby.dir_cntrl0        73295                       # Number of read requests responded to by this memory
system.mem_ctrls0.num_reads::total              73295                       # Number of read requests responded to by this memory
system.mem_ctrls0.num_writes::ruby.dir_cntrl0        44727                       # Number of write requests responded to by this memory
system.mem_ctrls0.num_writes::total             44727                       # Number of write requests responded to by this memory
system.mem_ctrls0.bw_read::ruby.dir_cntrl0    115790694                       # Total read bandwidth from this memory (bytes/s)
system.mem_ctrls0.bw_read::total            115790694                       # Total read bandwidth from this memory (bytes/s)
system.mem_ctrls0.bw_write::ruby.dir_cntrl0     70659259                       # Write bandwidth from this memory (bytes/s)
system.mem_ctrls0.bw_write::total            70659259                       # Write bandwidth from this memory (bytes/s)
system.mem_ctrls0.bw_total::ruby.dir_cntrl0    186449953                       # Total bandwidth to/from this memory (bytes/s)
system.mem_ctrls0.bw_total::total           186449953                       # Total bandwidth to/from this memory (bytes/s)
system.mem_ctrls0.readReqs                      73295                       # Number of read requests accepted
system.mem_ctrls0.writeReqs                     44727                       # Number of write requests accepted
system.mem_ctrls0.readBursts                    73295                       # Number of DRAM read bursts, including those serviced by the write queue
system.mem_ctrls0.writeBursts                   44727                       # Number of DRAM write bursts, including those merged in the write queue
system.mem_ctrls0.bytesReadDRAM               4690048                       # Total number of bytes read from DRAM
system.mem_ctrls0.bytesReadWrQ                    832                       # Total number of bytes read from write queue
system.mem_ctrls0.bytesWritten                2862528                       # Total number of bytes written to DRAM
system.mem_ctrls0.bytesReadSys                4690880                       # Total read bytes from the system interface side
system.mem_ctrls0.bytesWrittenSys             2862528                       # Total written bytes from the system interface side
system.mem_ctrls0.servicedByWrQ                    13                       # Number of DRAM read bursts serviced by the write queue
system.mem_ctrls0.mergedWrBursts                    0                       # Number of DRAM write bursts merged with an existing one
system.mem_ctrls0.neitherReadNorWriteReqs            0                       # Number of requests that are neither read nor write
system.mem_ctrls0.perBankRdBursts::0             4426                       # Per bank write bursts
system.mem_ctrls0.perBankRdBursts::1             4896                       # Per bank write bursts
system.mem_ctrls0.perBankRdBursts::2             4545                       # Per bank write bursts
system.mem_ctrls0.perBankRdBursts::3             4886                       # Per bank write bursts
system.mem_ctrls0.perBankRdBursts::4             4635                       # Per bank write bursts
system.mem_ctrls0.perBankRdBursts::5             4727                       # Per bank write bursts
system.mem_ctrls0.perBankRdBursts::6             4552                       # Per bank write bursts
system.mem_ctrls0.perBankRdBursts::7             4525                       # Per bank write bursts
system.mem_ctrls0.perBankRdBursts::8             4509                       # Per bank write bursts
system.mem_ctrls0.perBankRdBursts::9             4795                       # Per bank write bursts
system.mem_ctrls0.perBankRdBursts::10            4522                       # Per bank write bursts
system.mem_ctrls0.perBankRdBursts::11            4735                       # Per bank write bursts
system.mem_ctrls0.perBankRdBursts::12            4350                       # Per bank write bursts
system.mem_ctrls0.perBankRdBursts::13            4200                       # Per bank write bursts
system.mem_ctrls0.perBankRdBursts::14            4472                       # Per bank write bursts
system.mem_ctrls0.perBankRdBursts::15            4507                       # Per bank write bursts
system.mem_ctrls0.perBankWrBursts::0             2818                       # Per bank write bursts
system.mem_ctrls0.perBankWrBursts::1             2810                       # Per bank write bursts
system.mem_ctrls0.perBankWrBursts::2             2793                       # Per bank write bursts
system.mem_ctrls0.perBankWrBursts::3             2882                       # Per bank write bursts
system.mem_ctrls0.perBankWrBursts::4             2801                       # Per bank write bursts
system.mem_ctrls0.perBankWrBursts::5             2939                       # Per bank write bursts
system.mem_ctrls0.perBankWrBursts::6             2769                       # Per bank write bursts
system.mem_ctrls0.perBankWrBursts::7             2848                       # Per bank write bursts
system.mem_ctrls0.perBankWrBursts::8             2739                       # Per bank write bursts
system.mem_ctrls0.perBankWrBursts::9             2919                       # Per bank write bursts
system.mem_ctrls0.perBankWrBursts::10            2767                       # Per bank write bursts
system.mem_ctrls0.perBankWrBursts::11            2699                       # Per bank write bursts
system.mem_ctrls0.perBankWrBursts::12            2633                       # Per bank write bursts
system.mem_ctrls0.perBankWrBursts::13            2671                       # Per bank write bursts
system.mem_ctrls0.perBankWrBursts::14            2877                       # Per bank write bursts
system.mem_ctrls0.perBankWrBursts::15            2762                       # Per bank write bursts
system.mem_ctrls0.numRdRetry                        0                       # Number of times read queue was full causing retry
system.mem_ctrls0.numWrRetry                        0                       # Number of times write queue was full causing retry
system.mem_ctrls0.totGap                  40511215000                       # Total gap between requests
system.mem_ctrls0.readPktSize::0                    0                       # Read request sizes (log2)
system.mem_ctrls0.readPktSize::1                    0                       # Read request sizes (log2)
system.mem_ctrls0.readPktSize::2                    0                       # Read request sizes (log2)
system.mem_ctrls0.readPktSize::3                    0                       # Read request sizes (log2)
system.mem_ctrls0.readPktSize::4                    0                       # Read request sizes (log2)
system.mem_ctrls0.readPktSize::5                    0                       # Read request sizes (log2)
system.mem_ctrls0.readPktSize::6                73295                       # Read request sizes (log2)
system.mem_ctrls0.writePktSize::0                   0                       # Write request sizes (log2)
system.mem_ctrls0.writePktSize::1                   0                       # Write request sizes (log2)
system.mem_ctrls0.writePktSize::2                   0                       # Write request sizes (log2)
system.mem_ctrls0.writePktSize::3                   0                       # Write request sizes (log2)
system.mem_ctrls0.writePktSize::4                   0                       # Write request sizes (log2)
system.mem_ctrls0.writePktSize::5                   0                       # Write request sizes (log2)
system.mem_ctrls0.writePktSize::6               44727                       # Write request sizes (log2)
system.mem_ctrls0.rdQLenPdf::0                  54158                       # What read queue length does an incoming req see
system.mem_ctrls0.rdQLenPdf::1                   8837                       # What read queue length does an incoming req see
system.mem_ctrls0.rdQLenPdf::2                   8222                       # What read queue length does an incoming req see
system.mem_ctrls0.rdQLenPdf::3                   1147                       # What read queue length does an incoming req see
system.mem_ctrls0.rdQLenPdf::4                    763                       # What read queue length does an incoming req see
system.mem_ctrls0.rdQLenPdf::5                    138                       # What read queue length does an incoming req see
system.mem_ctrls0.rdQLenPdf::6                     17                       # What read queue length does an incoming req see
system.mem_ctrls0.rdQLenPdf::7                      0                       # What read queue length does an incoming req see
system.mem_ctrls0.rdQLenPdf::8                      0                       # What read queue length does an incoming req see
system.mem_ctrls0.rdQLenPdf::9                      0                       # What read queue length does an incoming req see
system.mem_ctrls0.rdQLenPdf::10                     0                       # What read queue length does an incoming req see
system.mem_ctrls0.rdQLenPdf::11                     0                       # What read queue length does an incoming req see
system.mem_ctrls0.rdQLenPdf::12                     0                       # What read queue length does an incoming req see
system.mem_ctrls0.rdQLenPdf::13                     0                       # What read queue length does an incoming req see
system.mem_ctrls0.rdQLenPdf::14                     0                       # What read queue length does an incoming req see
system.mem_ctrls0.rdQLenPdf::15                     0                       # What read queue length does an incoming req see
system.mem_ctrls0.rdQLenPdf::16                     0                       # What read queue length does an incoming req see
system.mem_ctrls0.rdQLenPdf::17                     0                       # What read queue length does an incoming req see
system.mem_ctrls0.rdQLenPdf::18                     0                       # What read queue length does an incoming req see
system.mem_ctrls0.rdQLenPdf::19                     0                       # What read queue length does an incoming req see
system.mem_ctrls0.rdQLenPdf::20                     0                       # What read queue length does an incoming req see
system.mem_ctrls0.rdQLenPdf::21                     0                       # What read queue length does an incoming req see
system.mem_ctrls0.rdQLenPdf::22                     0                       # What read queue length does an incoming req see
system.mem_ctrls0.rdQLenPdf::23                     0                       # What read queue length does an incoming req see
system.mem_ctrls0.rdQLenPdf::24                     0                       # What read queue length does an incoming req see
system.mem_ctrls0.rdQLenPdf::25                     0                       # What read queue length does an incoming req see
system.mem_ctrls0.rdQLenPdf::26                     0                       # What read queue length does an incoming req see
system.mem_ctrls0.rdQLenPdf::27                     0                       # What read queue length does an incoming req see
system.mem_ctrls0.rdQLenPdf::28                     0                       # What read queue length does an incoming req see
system.mem_ctrls0.rdQLenPdf::29                     0                       # What read queue length does an incoming req see
system.mem_ctrls0.rdQLenPdf::30                     0                       # What read queue length does an incoming req see
system.mem_ctrls0.rdQLenPdf::31                     0                       # What read queue length does an incoming req see
system.mem_ctrls0.wrQLenPdf::0                   8514                       # What write queue length does an incoming req see
system.mem_ctrls0.wrQLenPdf::1                   8691                       # What write queue length does an incoming req see
system.mem_ctrls0.wrQLenPdf::2                   8913                       # What write queue length does an incoming req see
system.mem_ctrls0.wrQLenPdf::3                   9128                       # What write queue length does an incoming req see
system.mem_ctrls0.wrQLenPdf::4                   9180                       # What write queue length does an incoming req see
system.mem_ctrls0.wrQLenPdf::5                    240                       # What write queue length does an incoming req see
system.mem_ctrls0.wrQLenPdf::6                     60                       # What write queue length does an incoming req see
system.mem_ctrls0.wrQLenPdf::7                      1                       # What write queue length does an incoming req see
system.mem_ctrls0.bytesPerActivate::samples        33493                       # Bytes accessed per row activation
system.mem_ctrls0.bytesPerActivate::mean   225.434091                       # Bytes accessed per row activation
system.mem_ctrls0.bytesPerActivate::gmean   155.017433                       # Bytes accessed per row activation
system.mem_ctrls0.bytesPerActivate::stdev   222.373493                       # Bytes accessed per row activation
system.mem_ctrls0.bytesPerActivate::0-127        13066     39.01%     39.01% # Bytes accessed per row activation
system.mem_ctrls0.bytesPerActivate::128-255         7448     22.24%     61.25% # Bytes accessed per row activation
system.mem_ctrls0.bytesPerActivate::256-383         8786     26.23%     87.48% # Bytes accessed per row activation
system.mem_ctrls0.bytesPerActivate::384-511         1254      3.74%     91.23% # Bytes accessed per row activation
system.mem_ctrls0.bytesPerActivate::512-639          678      2.02%     93.25% # Bytes accessed per row activation
system.mem_ctrls0.bytesPerActivate::640-767          413      1.23%     94.48% # Bytes accessed per row activation
system.mem_ctrls0.bytesPerActivate::768-895          333      0.99%     95.48% # Bytes accessed per row activation
system.mem_ctrls0.bytesPerActivate::896-1023          401      1.20%     96.67% # Bytes accessed per row activation
system.mem_ctrls0.bytesPerActivate::1024-1151         1114      3.33%    100.00% # Bytes accessed per row activation
system.mem_ctrls0.bytesPerActivate::total        33493                       # Bytes accessed per row activation
system.mem_ctrls0.rdPerTurnAround::samples         8514                       # Reads before turning the bus around for writes
system.mem_ctrls0.rdPerTurnAround::mean      8.605826                       # Reads before turning the bus around for writes
system.mem_ctrls0.rdPerTurnAround::stdev    44.277442                       # Reads before turning the bus around for writes
system.mem_ctrls0.rdPerTurnAround::0-127         8506     99.91%     99.91% # Reads before turning the bus around for writes
system.mem_ctrls0.rdPerTurnAround::128-255            7      0.08%     99.99% # Reads before turning the bus around for writes
system.mem_ctrls0.rdPerTurnAround::3968-4095            1      0.01%    100.00% # Reads before turning the bus around for writes
system.mem_ctrls0.rdPerTurnAround::total         8514                       # Reads before turning the bus around for writes
system.mem_ctrls0.wrPerTurnAround::samples         8514                       # Writes before turning the bus around for reads
system.mem_ctrls0.wrPerTurnAround::mean      5.253347                       # Writes before turning the bus around for reads
system.mem_ctrls0.wrPerTurnAround::gmean     5.219720                       # Writes before turning the bus around for reads
system.mem_ctrls0.wrPerTurnAround::stdev     0.648171                       # Writes before turning the bus around for reads
system.mem_ctrls0.wrPerTurnAround::4-5           7279     85.49%     85.49% # Writes before turning the bus around for reads
system.mem_ctrls0.wrPerTurnAround::6-7           1212     14.24%     99.73% # Writes before turning the bus around for reads
system.mem_ctrls0.wrPerTurnAround::8-9             19      0.22%     99.95% # Writes before turning the bus around for reads
system.mem_ctrls0.wrPerTurnAround::10-11            4      0.05%    100.00% # Writes before turning the bus around for reads
system.mem_ctrls0.wrPerTurnAround::total         8514                       # Writes before turning the bus around for reads
system.mem_ctrls0.totQLat                   985855750                       # Total ticks spent queuing
system.mem_ctrls0.totMemAccLat             2359893250                       # Total ticks spent from burst creation until serviced by the DRAM
system.mem_ctrls0.totBusLat                 366410000                       # Total ticks spent in databus transfers
system.mem_ctrls0.avgQLat                    13452.90                       # Average queueing delay per DRAM burst
system.mem_ctrls0.avgBusLat                   5000.00                       # Average bus latency per DRAM burst
system.mem_ctrls0.avgMemAccLat               32202.90                       # Average memory access latency per DRAM burst
system.mem_ctrls0.avgRdBW                      115.77                       # Average DRAM read bandwidth in MiByte/s
system.mem_ctrls0.avgWrBW                       70.66                       # Average achieved write bandwidth in MiByte/s
system.mem_ctrls0.avgRdBWSys                   115.79                       # Average system read bandwidth in MiByte/s
system.mem_ctrls0.avgWrBWSys                    70.66                       # Average system write bandwidth in MiByte/s
system.mem_ctrls0.peakBW                     12800.00                       # Theoretical peak bandwidth in MiByte/s
system.mem_ctrls0.busUtil                        1.46                       # Data bus utilization in percentage
system.mem_ctrls0.busUtilRead                    0.90                       # Data bus utilization in percentage for reads
system.mem_ctrls0.busUtilWrite                   0.55                       # Data bus utilization in percentage for writes
system.mem_ctrls0.avgRdQLen                      1.09                       # Average read queue length when enqueuing
system.mem_ctrls0.avgWrQLen                      2.87                       # Average write queue length when enqueuing
system.mem_ctrls0.readRowHits                   55538                       # Number of row buffer hits during reads
system.mem_ctrls0.writeRowHits                  28968                       # Number of row buffer hits during writes
system.mem_ctrls0.readRowHitRate                75.79                       # Row buffer hit rate for reads
system.mem_ctrls0.writeRowHitRate               64.77                       # Row buffer hit rate for writes
system.mem_ctrls0.avgGap                    343251.39                       # Average gap between requests
system.mem_ctrls0.pageHitRate                   71.61                       # Row buffer hit rate, read and write combined
system.mem_ctrls0.memoryStateTime::IDLE   10445612250                       # Time in different power states
system.mem_ctrls0.memoryStateTime::REF     1352520000                       # Time in different power states
system.mem_ctrls0.memoryStateTime::PRE_PDN            0                       # Time in different power states
system.mem_ctrls0.memoryStateTime::ACT    28706214000                       # Time in different power states
system.mem_ctrls0.memoryStateTime::ACT_PDN            0                       # Time in different power states
system.mem_ctrls0.actEnergy::0              130871160                       # Energy for activate commands per rank (pJ)
system.mem_ctrls0.actEnergy::1              122267880                       # Energy for activate commands per rank (pJ)
system.mem_ctrls0.preEnergy::0               71407875                       # Energy for precharge commands per rank (pJ)
system.mem_ctrls0.preEnergy::1               66713625                       # Energy for precharge commands per rank (pJ)
system.mem_ctrls0.readEnergy::0             289606200                       # Energy for read commands per rank (pJ)
system.mem_ctrls0.readEnergy::1             281392800                       # Energy for read commands per rank (pJ)
system.mem_ctrls0.writeEnergy::0            146778480                       # Energy for write commands per rank (pJ)
system.mem_ctrls0.writeEnergy::1            142987680                       # Energy for write commands per rank (pJ)
system.mem_ctrls0.refreshEnergy::0         2645529120                       # Energy for refresh commands per rank (pJ)
system.mem_ctrls0.refreshEnergy::1         2645529120                       # Energy for refresh commands per rank (pJ)
system.mem_ctrls0.actBackEnergy::0        15033565890                       # Energy for active background per rank (pJ)
system.mem_ctrls0.actBackEnergy::1        14621217345                       # Energy for active background per rank (pJ)
system.mem_ctrls0.preBackEnergy::0        11115261000                       # Energy for precharge background per rank (pJ)
system.mem_ctrls0.preBackEnergy::1        11476970250                       # Energy for precharge background per rank (pJ)
system.mem_ctrls0.totalEnergy::0          29433019725                       # Total energy per rank (pJ)
system.mem_ctrls0.totalEnergy::1          29357078700                       # Total energy per rank (pJ)
system.mem_ctrls0.averagePower::0          726.663493                       # Core power per rank (mW)
system.mem_ctrls0.averagePower::1          724.788606                       # Core power per rank (mW)
system.mem_ctrls1.bytes_read::ruby.dir_cntrl1      4565888                       # Number of bytes read from this memory
system.mem_ctrls1.bytes_read::total           4565888                       # Number of bytes read from this memory
system.mem_ctrls1.bytes_written::ruby.dir_cntrl1      2746688                       # Number of bytes written to this memory
system.mem_ctrls1.bytes_written::total        2746688                       # Number of bytes written to this memory
system.mem_ctrls1.num_reads::ruby.dir_cntrl1        71342                       # Number of read requests responded to by this memory
system.mem_ctrls1.num_reads::total              71342                       # Number of read requests responded to by this memory
system.mem_ctrls1.num_writes::ruby.dir_cntrl1        42917                       # Number of write requests responded to by this memory
system.mem_ctrls1.num_writes::total             42917                       # Number of write requests responded to by this memory
system.mem_ctrls1.bw_read::ruby.dir_cntrl1    112705364                       # Total read bandwidth from this memory (bytes/s)
system.mem_ctrls1.bw_read::total            112705364                       # Total read bandwidth from this memory (bytes/s)
system.mem_ctrls1.bw_write::ruby.dir_cntrl1     67799839                       # Write bandwidth from this memory (bytes/s)
system.mem_ctrls1.bw_write::total            67799839                       # Write bandwidth from this memory (bytes/s)
system.mem_ctrls1.bw_total::ruby.dir_cntrl1    180505204                       # Total bandwidth to/from this memory (bytes/s)
system.mem_ctrls1.bw_total::total           180505204                       # Total bandwidth to/from this memory (bytes/s)
system.mem_ctrls1.readReqs                      71342                       # Number of read requests accepted
system.mem_ctrls1.writeReqs                     42917                       # Number of write requests accepted
system.mem_ctrls1.readBursts                    71342                       # Number of DRAM read bursts, including those serviced by the write queue
system.mem_ctrls1.writeBursts                   42917                       # Number of DRAM write bursts, including those merged in the write queue
system.mem_ctrls1.bytesReadDRAM               4564864                       # Total number of bytes read from DRAM
system.mem_ctrls1.bytesReadWrQ                   1024                       # Total number of bytes read from write queue
system.mem_ctrls1.bytesWritten                2746560                       # Total number of bytes written to DRAM
system.mem_ctrls1.bytesReadSys                4565888                       # Total read bytes from the system interface side
system.mem_ctrls1.bytesWrittenSys             2746688                       # Total written bytes from the system interface side
system.mem_ctrls1.servicedByWrQ                    16                       # Number of DRAM read bursts serviced by the write queue
system.mem_ctrls1.mergedWrBursts                    0                       # Number of DRAM write bursts merged with an existing one
system.mem_ctrls1.neitherReadNorWriteReqs            0                       # Number of requests that are neither read nor write
system.mem_ctrls1.perBankRdBursts::0             4310                       # Per bank write bursts
system.mem_ctrls1.perBankRdBursts::1             4759                       # Per bank write bursts
system.mem_ctrls1.perBankRdBursts::2             4423                       # Per bank write bursts
system.mem_ctrls1.perBankRdBursts::3             4767                       # Per bank write bursts
system.mem_ctrls1.perBankRdBursts::4             4525                       # Per bank write bursts
system.mem_ctrls1.perBankRdBursts::5             4632                       # Per bank write bursts
system.mem_ctrls1.perBankRdBursts::6             4426                       # Per bank write bursts
system.mem_ctrls1.perBankRdBursts::7             4428                       # Per bank write bursts
system.mem_ctrls1.perBankRdBursts::8             4381                       # Per bank write bursts
system.mem_ctrls1.perBankRdBursts::9             4672                       # Per bank write bursts
system.mem_ctrls1.perBankRdBursts::10            4402                       # Per bank write bursts
system.mem_ctrls1.perBankRdBursts::11            4614                       # Per bank write bursts
system.mem_ctrls1.perBankRdBursts::12            4227                       # Per bank write bursts
system.mem_ctrls1.perBankRdBursts::13            4086                       # Per bank write bursts
system.mem_ctrls1.perBankRdBursts::14            4274                       # Per bank write bursts
system.mem_ctrls1.perBankRdBursts::15            4400                       # Per bank write bursts
system.mem_ctrls1.perBankWrBursts::0             2710                       # Per bank write bursts
system.mem_ctrls1.perBankWrBursts::1             2714                       # Per bank write bursts
system.mem_ctrls1.perBankWrBursts::2             2692                       # Per bank write bursts
system.mem_ctrls1.perBankWrBursts::3             2773                       # Per bank write bursts
system.mem_ctrls1.perBankWrBursts::4             2699                       # Per bank write bursts
system.mem_ctrls1.perBankWrBursts::5             2830                       # Per bank write bursts
system.mem_ctrls1.perBankWrBursts::6             2643                       # Per bank write bursts
system.mem_ctrls1.perBankWrBursts::7             2733                       # Per bank write bursts
system.mem_ctrls1.perBankWrBursts::8             2629                       # Per bank write bursts
system.mem_ctrls1.perBankWrBursts::9             2805                       # Per bank write bursts
system.mem_ctrls1.perBankWrBursts::10            2661                       # Per bank write bursts
system.mem_ctrls1.perBankWrBursts::11            2586                       # Per bank write bursts
system.mem_ctrls1.perBankWrBursts::12            2527                       # Per bank write bursts
system.mem_ctrls1.perBankWrBursts::13            2553                       # Per bank write bursts
system.mem_ctrls1.perBankWrBursts::14            2708                       # Per bank write bursts
system.mem_ctrls1.perBankWrBursts::15            2652                       # Per bank write bursts
system.mem_ctrls1.numRdRetry                        0                       # Number of times read queue was full causing retry
system.mem_ctrls1.numWrRetry                        9                       # Number of times write queue was full causing retry
system.mem_ctrls1.totGap                  40510963000                       # Total gap between requests
system.mem_ctrls1.readPktSize::0                    0                       # Read request sizes (log2)
system.mem_ctrls1.readPktSize::1                    0                       # Read request sizes (log2)
system.mem_ctrls1.readPktSize::2                    0                       # Read request sizes (log2)
system.mem_ctrls1.readPktSize::3                    0                       # Read request sizes (log2)
system.mem_ctrls1.readPktSize::4                    0                       # Read request sizes (log2)
system.mem_ctrls1.readPktSize::5                    0                       # Read request sizes (log2)
system.mem_ctrls1.readPktSize::6                71342                       # Read request sizes (log2)
system.mem_ctrls1.writePktSize::0                   0                       # Write request sizes (log2)
system.mem_ctrls1.writePktSize::1                   0                       # Write request sizes (log2)
system.mem_ctrls1.writePktSize::2                   0                       # Write request sizes (log2)
system.mem_ctrls1.writePktSize::3                   0                       # Write request sizes (log2)
system.mem_ctrls1.writePktSize::4                   0                       # Write request sizes (log2)
system.mem_ctrls1.writePktSize::5                   0                       # Write request sizes (log2)
system.mem_ctrls1.writePktSize::6               42917                       # Write request sizes (log2)
system.mem_ctrls1.rdQLenPdf::0                  51130                       # What read queue length does an incoming req see
system.mem_ctrls1.rdQLenPdf::1                  12091                       # What read queue length does an incoming req see
system.mem_ctrls1.rdQLenPdf::2                   5895                       # What read queue length does an incoming req see
system.mem_ctrls1.rdQLenPdf::3                   1458                       # What read queue length does an incoming req see
system.mem_ctrls1.rdQLenPdf::4                    583                       # What read queue length does an incoming req see
system.mem_ctrls1.rdQLenPdf::5                    154                       # What read queue length does an incoming req see
system.mem_ctrls1.rdQLenPdf::6                     15                       # What read queue length does an incoming req see
system.mem_ctrls1.rdQLenPdf::7                      0                       # What read queue length does an incoming req see
system.mem_ctrls1.rdQLenPdf::8                      0                       # What read queue length does an incoming req see
system.mem_ctrls1.rdQLenPdf::9                      0                       # What read queue length does an incoming req see
system.mem_ctrls1.rdQLenPdf::10                     0                       # What read queue length does an incoming req see
system.mem_ctrls1.rdQLenPdf::11                     0                       # What read queue length does an incoming req see
system.mem_ctrls1.rdQLenPdf::12                     0                       # What read queue length does an incoming req see
system.mem_ctrls1.rdQLenPdf::13                     0                       # What read queue length does an incoming req see
system.mem_ctrls1.rdQLenPdf::14                     0                       # What read queue length does an incoming req see
system.mem_ctrls1.rdQLenPdf::15                     0                       # What read queue length does an incoming req see
system.mem_ctrls1.rdQLenPdf::16                     0                       # What read queue length does an incoming req see
system.mem_ctrls1.rdQLenPdf::17                     0                       # What read queue length does an incoming req see
system.mem_ctrls1.rdQLenPdf::18                     0                       # What read queue length does an incoming req see
system.mem_ctrls1.rdQLenPdf::19                     0                       # What read queue length does an incoming req see
system.mem_ctrls1.rdQLenPdf::20                     0                       # What read queue length does an incoming req see
system.mem_ctrls1.rdQLenPdf::21                     0                       # What read queue length does an incoming req see
system.mem_ctrls1.rdQLenPdf::22                     0                       # What read queue length does an incoming req see
system.mem_ctrls1.rdQLenPdf::23                     0                       # What read queue length does an incoming req see
system.mem_ctrls1.rdQLenPdf::24                     0                       # What read queue length does an incoming req see
system.mem_ctrls1.rdQLenPdf::25                     0                       # What read queue length does an incoming req see
system.mem_ctrls1.rdQLenPdf::26                     0                       # What read queue length does an incoming req see
system.mem_ctrls1.rdQLenPdf::27                     0                       # What read queue length does an incoming req see
system.mem_ctrls1.rdQLenPdf::28                     0                       # What read queue length does an incoming req see
system.mem_ctrls1.rdQLenPdf::29                     0                       # What read queue length does an incoming req see
system.mem_ctrls1.rdQLenPdf::30                     0                       # What read queue length does an incoming req see
system.mem_ctrls1.rdQLenPdf::31                     0                       # What read queue length does an incoming req see
system.mem_ctrls1.wrQLenPdf::0                   8188                       # What write queue length does an incoming req see
system.mem_ctrls1.wrQLenPdf::1                   8679                       # What write queue length does an incoming req see
system.mem_ctrls1.wrQLenPdf::2                   8804                       # What write queue length does an incoming req see
system.mem_ctrls1.wrQLenPdf::3                   8574                       # What write queue length does an incoming req see
system.mem_ctrls1.wrQLenPdf::4                   8444                       # What write queue length does an incoming req see
system.mem_ctrls1.wrQLenPdf::5                    147                       # What write queue length does an incoming req see
system.mem_ctrls1.wrQLenPdf::6                     55                       # What write queue length does an incoming req see
system.mem_ctrls1.wrQLenPdf::7                     26                       # What write queue length does an incoming req see
system.mem_ctrls1.bytesPerActivate::samples        29558                       # Bytes accessed per row activation
system.mem_ctrls1.bytesPerActivate::mean   247.332566                       # Bytes accessed per row activation
system.mem_ctrls1.bytesPerActivate::gmean   172.732715                       # Bytes accessed per row activation
system.mem_ctrls1.bytesPerActivate::stdev   230.710800                       # Bytes accessed per row activation
system.mem_ctrls1.bytesPerActivate::0-127         9680     32.75%     32.75% # Bytes accessed per row activation
system.mem_ctrls1.bytesPerActivate::128-255         6817     23.06%     55.81% # Bytes accessed per row activation
system.mem_ctrls1.bytesPerActivate::256-383         8708     29.46%     85.27% # Bytes accessed per row activation
system.mem_ctrls1.bytesPerActivate::384-511         1309      4.43%     89.70% # Bytes accessed per row activation
system.mem_ctrls1.bytesPerActivate::512-639          756      2.56%     92.26% # Bytes accessed per row activation
system.mem_ctrls1.bytesPerActivate::640-767          410      1.39%     93.65% # Bytes accessed per row activation
system.mem_ctrls1.bytesPerActivate::768-895          333      1.13%     94.77% # Bytes accessed per row activation
system.mem_ctrls1.bytesPerActivate::896-1023          421      1.42%     96.20% # Bytes accessed per row activation
system.mem_ctrls1.bytesPerActivate::1024-1151         1124      3.80%    100.00% # Bytes accessed per row activation
system.mem_ctrls1.bytesPerActivate::total        29558                       # Bytes accessed per row activation
system.mem_ctrls1.rdPerTurnAround::samples         8187                       # Reads before turning the bus around for writes
system.mem_ctrls1.rdPerTurnAround::mean      8.708074                       # Reads before turning the bus around for writes
system.mem_ctrls1.rdPerTurnAround::stdev    35.880094                       # Reads before turning the bus around for writes
system.mem_ctrls1.rdPerTurnAround::0-127         8178     99.89%     99.89% # Reads before turning the bus around for writes
system.mem_ctrls1.rdPerTurnAround::128-255            7      0.09%     99.98% # Reads before turning the bus around for writes
system.mem_ctrls1.rdPerTurnAround::1152-1279            1      0.01%     99.99% # Reads before turning the bus around for writes
system.mem_ctrls1.rdPerTurnAround::2816-2943            1      0.01%    100.00% # Reads before turning the bus around for writes
system.mem_ctrls1.rdPerTurnAround::total         8187                       # Reads before turning the bus around for writes
system.mem_ctrls1.wrPerTurnAround::samples         8187                       # Writes before turning the bus around for reads
system.mem_ctrls1.wrPerTurnAround::mean      5.241847                       # Writes before turning the bus around for reads
system.mem_ctrls1.wrPerTurnAround::gmean     5.201943                       # Writes before turning the bus around for reads
system.mem_ctrls1.wrPerTurnAround::stdev     0.735238                       # Writes before turning the bus around for reads
system.mem_ctrls1.wrPerTurnAround::4-5           7210     88.07%     88.07% # Writes before turning the bus around for reads
system.mem_ctrls1.wrPerTurnAround::6-7            814      9.94%     98.01% # Writes before turning the bus around for reads
system.mem_ctrls1.wrPerTurnAround::8-9            135      1.65%     99.66% # Writes before turning the bus around for reads
system.mem_ctrls1.wrPerTurnAround::10-11           28      0.34%    100.00% # Writes before turning the bus around for reads
system.mem_ctrls1.wrPerTurnAround::total         8187                       # Writes before turning the bus around for reads
system.mem_ctrls1.totQLat                  1071283248                       # Total ticks spent queuing
system.mem_ctrls1.totMemAccLat             2408645748                       # Total ticks spent from burst creation until serviced by the DRAM
system.mem_ctrls1.totBusLat                 356630000                       # Total ticks spent in databus transfers
system.mem_ctrls1.avgQLat                    15019.53                       # Average queueing delay per DRAM burst
system.mem_ctrls1.avgBusLat                   5000.00                       # Average bus latency per DRAM burst
system.mem_ctrls1.avgMemAccLat               33769.53                       # Average memory access latency per DRAM burst
system.mem_ctrls1.avgRdBW                      112.68                       # Average DRAM read bandwidth in MiByte/s
system.mem_ctrls1.avgWrBW                       67.80                       # Average achieved write bandwidth in MiByte/s
system.mem_ctrls1.avgRdBWSys                   112.71                       # Average system read bandwidth in MiByte/s
system.mem_ctrls1.avgWrBWSys                    67.80                       # Average system write bandwidth in MiByte/s
system.mem_ctrls1.peakBW                     12800.00                       # Theoretical peak bandwidth in MiByte/s
system.mem_ctrls1.busUtil                        1.41                       # Data bus utilization in percentage
system.mem_ctrls1.busUtilRead                    0.88                       # Data bus utilization in percentage for reads
system.mem_ctrls1.busUtilWrite                   0.53                       # Data bus utilization in percentage for writes
system.mem_ctrls1.avgRdQLen                      1.07                       # Average read queue length when enqueuing
system.mem_ctrls1.avgWrQLen                      2.85                       # Average write queue length when enqueuing
system.mem_ctrls1.readRowHits                   55218                       # Number of row buffer hits during reads
system.mem_ctrls1.writeRowHits                  29461                       # Number of row buffer hits during writes
system.mem_ctrls1.readRowHitRate                77.42                       # Row buffer hit rate for reads
system.mem_ctrls1.writeRowHitRate               68.65                       # Row buffer hit rate for writes
system.mem_ctrls1.avgGap                    354553.80                       # Average gap between requests
system.mem_ctrls1.pageHitRate                   74.12                       # Row buffer hit rate, read and write combined
system.mem_ctrls1.memoryStateTime::IDLE   10635032500                       # Time in different power states
system.mem_ctrls1.memoryStateTime::REF     1352520000                       # Time in different power states
system.mem_ctrls1.memoryStateTime::PRE_PDN            0                       # Time in different power states
system.mem_ctrls1.memoryStateTime::ACT    28516921000                       # Time in different power states
system.mem_ctrls1.memoryStateTime::ACT_PDN            0                       # Time in different power states
system.mem_ctrls1.actEnergy::0              116484480                       # Energy for activate commands per rank (pJ)
system.mem_ctrls1.actEnergy::1              106913520                       # Energy for activate commands per rank (pJ)
system.mem_ctrls1.preEnergy::0               63558000                       # Energy for precharge commands per rank (pJ)
system.mem_ctrls1.preEnergy::1               58335750                       # Energy for precharge commands per rank (pJ)
system.mem_ctrls1.readEnergy::0             282430200                       # Energy for read commands per rank (pJ)
system.mem_ctrls1.readEnergy::1             273351000                       # Energy for read commands per rank (pJ)
system.mem_ctrls1.writeEnergy::0            141160320                       # Energy for write commands per rank (pJ)
system.mem_ctrls1.writeEnergy::1            136864080                       # Energy for write commands per rank (pJ)
system.mem_ctrls1.refreshEnergy::0         2645529120                       # Energy for refresh commands per rank (pJ)
system.mem_ctrls1.refreshEnergy::1         2645529120                       # Energy for refresh commands per rank (pJ)
system.mem_ctrls1.actBackEnergy::0        14864517855                       # Energy for active background per rank (pJ)
system.mem_ctrls1.actBackEnergy::1        14180755545                       # Energy for active background per rank (pJ)
system.mem_ctrls1.preBackEnergy::0        11263548750                       # Energy for precharge background per rank (pJ)
system.mem_ctrls1.preBackEnergy::1        11863340250                       # Energy for precharge background per rank (pJ)
system.mem_ctrls1.totalEnergy::0          29377228725                       # Total energy per rank (pJ)
system.mem_ctrls1.totalEnergy::1          29265089265                       # Total energy per rank (pJ)
system.mem_ctrls1.averagePower::0          725.286085                       # Core power per rank (mW)
system.mem_ctrls1.averagePower::1          722.517505                       # Core power per rank (mW)
system.mem_ctrls2.bytes_read::ruby.dir_cntrl2      4568896                       # Number of bytes read from this memory
system.mem_ctrls2.bytes_read::total           4568896                       # Number of bytes read from this memory
system.mem_ctrls2.bytes_written::ruby.dir_cntrl2      2748736                       # Number of bytes written to this memory
system.mem_ctrls2.bytes_written::total        2748736                       # Number of bytes written to this memory
system.mem_ctrls2.num_reads::ruby.dir_cntrl2        71389                       # Number of read requests responded to by this memory
system.mem_ctrls2.num_reads::total              71389                       # Number of read requests responded to by this memory
system.mem_ctrls2.num_writes::ruby.dir_cntrl2        42949                       # Number of write requests responded to by this memory
system.mem_ctrls2.num_writes::total             42949                       # Number of write requests responded to by this memory
system.mem_ctrls2.bw_read::ruby.dir_cntrl2    112779615                       # Total read bandwidth from this memory (bytes/s)
system.mem_ctrls2.bw_read::total            112779615                       # Total read bandwidth from this memory (bytes/s)
system.mem_ctrls2.bw_write::ruby.dir_cntrl2     67850392                       # Write bandwidth from this memory (bytes/s)
system.mem_ctrls2.bw_write::total            67850392                       # Write bandwidth from this memory (bytes/s)
system.mem_ctrls2.bw_total::ruby.dir_cntrl2    180630007                       # Total bandwidth to/from this memory (bytes/s)
system.mem_ctrls2.bw_total::total           180630007                       # Total bandwidth to/from this memory (bytes/s)
system.mem_ctrls2.readReqs                      71389                       # Number of read requests accepted
system.mem_ctrls2.writeReqs                     42949                       # Number of write requests accepted
system.mem_ctrls2.readBursts                    71389                       # Number of DRAM read bursts, including those serviced by the write queue
system.mem_ctrls2.writeBursts                   42949                       # Number of DRAM write bursts, including those merged in the write queue
system.mem_ctrls2.bytesReadDRAM               4567936                       # Total number of bytes read from DRAM
system.mem_ctrls2.bytesReadWrQ                    960                       # Total number of bytes read from write queue
system.mem_ctrls2.bytesWritten                2748480                       # Total number of bytes written to DRAM
system.mem_ctrls2.bytesReadSys                4568896                       # Total read bytes from the system interface side
system.mem_ctrls2.bytesWrittenSys             2748736                       # Total written bytes from the system interface side
system.mem_ctrls2.servicedByWrQ                    15                       # Number of DRAM read bursts serviced by the write queue
system.mem_ctrls2.mergedWrBursts                    0                       # Number of DRAM write bursts merged with an existing one
system.mem_ctrls2.neitherReadNorWriteReqs            0                       # Number of requests that are neither read nor write
system.mem_ctrls2.perBankRdBursts::0             4292                       # Per bank write bursts
system.mem_ctrls2.perBankRdBursts::1             4789                       # Per bank write bursts
system.mem_ctrls2.perBankRdBursts::2             4440                       # Per bank write bursts
system.mem_ctrls2.perBankRdBursts::3             4798                       # Per bank write bursts
system.mem_ctrls2.perBankRdBursts::4             4535                       # Per bank write bursts
system.mem_ctrls2.perBankRdBursts::5             4626                       # Per bank write bursts
system.mem_ctrls2.perBankRdBursts::6             4420                       # Per bank write bursts
system.mem_ctrls2.perBankRdBursts::7             4422                       # Per bank write bursts
system.mem_ctrls2.perBankRdBursts::8             4365                       # Per bank write bursts
system.mem_ctrls2.perBankRdBursts::9             4654                       # Per bank write bursts
system.mem_ctrls2.perBankRdBursts::10            4398                       # Per bank write bursts
system.mem_ctrls2.perBankRdBursts::11            4653                       # Per bank write bursts
system.mem_ctrls2.perBankRdBursts::12            4240                       # Per bank write bursts
system.mem_ctrls2.perBankRdBursts::13            4074                       # Per bank write bursts
system.mem_ctrls2.perBankRdBursts::14            4264                       # Per bank write bursts
system.mem_ctrls2.perBankRdBursts::15            4404                       # Per bank write bursts
system.mem_ctrls2.perBankWrBursts::0             2703                       # Per bank write bursts
system.mem_ctrls2.perBankWrBursts::1             2712                       # Per bank write bursts
system.mem_ctrls2.perBankWrBursts::2             2690                       # Per bank write bursts
system.mem_ctrls2.perBankWrBursts::3             2789                       # Per bank write bursts
system.mem_ctrls2.perBankWrBursts::4             2697                       # Per bank write bursts
system.mem_ctrls2.perBankWrBursts::5             2819                       # Per bank write bursts
system.mem_ctrls2.perBankWrBursts::6             2646                       # Per bank write bursts
system.mem_ctrls2.perBankWrBursts::7             2737                       # Per bank write bursts
system.mem_ctrls2.perBankWrBursts::8             2629                       # Per bank write bursts
system.mem_ctrls2.perBankWrBursts::9             2811                       # Per bank write bursts
system.mem_ctrls2.perBankWrBursts::10            2656                       # Per bank write bursts
system.mem_ctrls2.perBankWrBursts::11            2600                       # Per bank write bursts
system.mem_ctrls2.perBankWrBursts::12            2536                       # Per bank write bursts
system.mem_ctrls2.perBankWrBursts::13            2549                       # Per bank write bursts
system.mem_ctrls2.perBankWrBursts::14            2716                       # Per bank write bursts
system.mem_ctrls2.perBankWrBursts::15            2655                       # Per bank write bursts
system.mem_ctrls2.numRdRetry                        0                       # Number of times read queue was full causing retry
system.mem_ctrls2.numWrRetry                        2                       # Number of times write queue was full causing retry
system.mem_ctrls2.totGap                  40511202000                       # Total gap between requests
system.mem_ctrls2.readPktSize::0                    0                       # Read request sizes (log2)
system.mem_ctrls2.readPktSize::1                    0                       # Read request sizes (log2)
system.mem_ctrls2.readPktSize::2                    0                       # Read request sizes (log2)
system.mem_ctrls2.readPktSize::3                    0                       # Read request sizes (log2)
system.mem_ctrls2.readPktSize::4                    0                       # Read request sizes (log2)
system.mem_ctrls2.readPktSize::5                    0                       # Read request sizes (log2)
system.mem_ctrls2.readPktSize::6                71389                       # Read request sizes (log2)
system.mem_ctrls2.writePktSize::0                   0                       # Write request sizes (log2)
system.mem_ctrls2.writePktSize::1                   0                       # Write request sizes (log2)
system.mem_ctrls2.writePktSize::2                   0                       # Write request sizes (log2)
system.mem_ctrls2.writePktSize::3                   0                       # Write request sizes (log2)
system.mem_ctrls2.writePktSize::4                   0                       # Write request sizes (log2)
system.mem_ctrls2.writePktSize::5                   0                       # Write request sizes (log2)
system.mem_ctrls2.writePktSize::6               42949                       # Write request sizes (log2)
system.mem_ctrls2.rdQLenPdf::0                  53462                       # What read queue length does an incoming req see
system.mem_ctrls2.rdQLenPdf::1                   8200                       # What read queue length does an incoming req see
system.mem_ctrls2.rdQLenPdf::2                   8032                       # What read queue length does an incoming req see
system.mem_ctrls2.rdQLenPdf::3                   1018                       # What read queue length does an incoming req see
system.mem_ctrls2.rdQLenPdf::4                    516                       # What read queue length does an incoming req see
system.mem_ctrls2.rdQLenPdf::5                    131                       # What read queue length does an incoming req see
system.mem_ctrls2.rdQLenPdf::6                     14                       # What read queue length does an incoming req see
system.mem_ctrls2.rdQLenPdf::7                      1                       # What read queue length does an incoming req see
system.mem_ctrls2.rdQLenPdf::8                      0                       # What read queue length does an incoming req see
system.mem_ctrls2.rdQLenPdf::9                      0                       # What read queue length does an incoming req see
system.mem_ctrls2.rdQLenPdf::10                     0                       # What read queue length does an incoming req see
system.mem_ctrls2.rdQLenPdf::11                     0                       # What read queue length does an incoming req see
system.mem_ctrls2.rdQLenPdf::12                     0                       # What read queue length does an incoming req see
system.mem_ctrls2.rdQLenPdf::13                     0                       # What read queue length does an incoming req see
system.mem_ctrls2.rdQLenPdf::14                     0                       # What read queue length does an incoming req see
system.mem_ctrls2.rdQLenPdf::15                     0                       # What read queue length does an incoming req see
system.mem_ctrls2.rdQLenPdf::16                     0                       # What read queue length does an incoming req see
system.mem_ctrls2.rdQLenPdf::17                     0                       # What read queue length does an incoming req see
system.mem_ctrls2.rdQLenPdf::18                     0                       # What read queue length does an incoming req see
system.mem_ctrls2.rdQLenPdf::19                     0                       # What read queue length does an incoming req see
system.mem_ctrls2.rdQLenPdf::20                     0                       # What read queue length does an incoming req see
system.mem_ctrls2.rdQLenPdf::21                     0                       # What read queue length does an incoming req see
system.mem_ctrls2.rdQLenPdf::22                     0                       # What read queue length does an incoming req see
system.mem_ctrls2.rdQLenPdf::23                     0                       # What read queue length does an incoming req see
system.mem_ctrls2.rdQLenPdf::24                     0                       # What read queue length does an incoming req see
system.mem_ctrls2.rdQLenPdf::25                     0                       # What read queue length does an incoming req see
system.mem_ctrls2.rdQLenPdf::26                     0                       # What read queue length does an incoming req see
system.mem_ctrls2.rdQLenPdf::27                     0                       # What read queue length does an incoming req see
system.mem_ctrls2.rdQLenPdf::28                     0                       # What read queue length does an incoming req see
system.mem_ctrls2.rdQLenPdf::29                     0                       # What read queue length does an incoming req see
system.mem_ctrls2.rdQLenPdf::30                     0                       # What read queue length does an incoming req see
system.mem_ctrls2.rdQLenPdf::31                     0                       # What read queue length does an incoming req see
system.mem_ctrls2.wrQLenPdf::0                   8181                       # What write queue length does an incoming req see
system.mem_ctrls2.wrQLenPdf::1                   8326                       # What write queue length does an incoming req see
system.mem_ctrls2.wrQLenPdf::2                   8561                       # What write queue length does an incoming req see
system.mem_ctrls2.wrQLenPdf::3                   8803                       # What write queue length does an incoming req see
system.mem_ctrls2.wrQLenPdf::4                   8806                       # What write queue length does an incoming req see
system.mem_ctrls2.wrQLenPdf::5                    209                       # What write queue length does an incoming req see
system.mem_ctrls2.wrQLenPdf::6                     58                       # What write queue length does an incoming req see
system.mem_ctrls2.wrQLenPdf::7                      5                       # What write queue length does an incoming req see
system.mem_ctrls2.bytesPerActivate::samples        29526                       # Bytes accessed per row activation
system.mem_ctrls2.bytesPerActivate::mean   247.776197                       # Bytes accessed per row activation
system.mem_ctrls2.bytesPerActivate::gmean   173.549777                       # Bytes accessed per row activation
system.mem_ctrls2.bytesPerActivate::stdev   229.322832                       # Bytes accessed per row activation
system.mem_ctrls2.bytesPerActivate::0-127         9641     32.65%     32.65% # Bytes accessed per row activation
system.mem_ctrls2.bytesPerActivate::128-255         6664     22.57%     55.22% # Bytes accessed per row activation
system.mem_ctrls2.bytesPerActivate::256-383         8897     30.13%     85.36% # Bytes accessed per row activation
system.mem_ctrls2.bytesPerActivate::384-511         1302      4.41%     89.76% # Bytes accessed per row activation
system.mem_ctrls2.bytesPerActivate::512-639          713      2.41%     92.18% # Bytes accessed per row activation
system.mem_ctrls2.bytesPerActivate::640-767          486      1.65%     93.83% # Bytes accessed per row activation
system.mem_ctrls2.bytesPerActivate::768-895          340      1.15%     94.98% # Bytes accessed per row activation
system.mem_ctrls2.bytesPerActivate::896-1023          360      1.22%     96.20% # Bytes accessed per row activation
system.mem_ctrls2.bytesPerActivate::1024-1151         1123      3.80%    100.00% # Bytes accessed per row activation
system.mem_ctrls2.bytesPerActivate::total        29526                       # Bytes accessed per row activation
system.mem_ctrls2.rdPerTurnAround::samples         8180                       # Reads before turning the bus around for writes
system.mem_ctrls2.rdPerTurnAround::mean      8.720660                       # Reads before turning the bus around for writes
system.mem_ctrls2.rdPerTurnAround::stdev    36.008752                       # Reads before turning the bus around for writes
system.mem_ctrls2.rdPerTurnAround::0-127         8174     99.93%     99.93% # Reads before turning the bus around for writes
system.mem_ctrls2.rdPerTurnAround::128-255            4      0.05%     99.98% # Reads before turning the bus around for writes
system.mem_ctrls2.rdPerTurnAround::1152-1279            1      0.01%     99.99% # Reads before turning the bus around for writes
system.mem_ctrls2.rdPerTurnAround::2816-2943            1      0.01%    100.00% # Reads before turning the bus around for writes
system.mem_ctrls2.rdPerTurnAround::total         8180                       # Reads before turning the bus around for writes
system.mem_ctrls2.wrPerTurnAround::samples         8180                       # Writes before turning the bus around for reads
system.mem_ctrls2.wrPerTurnAround::mean      5.250000                       # Writes before turning the bus around for reads
system.mem_ctrls2.wrPerTurnAround::gmean     5.215108                       # Writes before turning the bus around for reads
system.mem_ctrls2.wrPerTurnAround::stdev     0.663232                       # Writes before turning the bus around for reads
system.mem_ctrls2.wrPerTurnAround::4-5           7085     86.61%     86.61% # Writes before turning the bus around for reads
system.mem_ctrls2.wrPerTurnAround::6-7           1068     13.06%     99.67% # Writes before turning the bus around for reads
system.mem_ctrls2.wrPerTurnAround::8-9             22      0.27%     99.94% # Writes before turning the bus around for reads
system.mem_ctrls2.wrPerTurnAround::10-11            5      0.06%    100.00% # Writes before turning the bus around for reads
system.mem_ctrls2.wrPerTurnAround::total         8180                       # Writes before turning the bus around for reads
system.mem_ctrls2.totQLat                   944448500                       # Total ticks spent queuing
system.mem_ctrls2.totMemAccLat             2282711000                       # Total ticks spent from burst creation until serviced by the DRAM
system.mem_ctrls2.totBusLat                 356870000                       # Total ticks spent in databus transfers
system.mem_ctrls2.avgQLat                    13232.39                       # Average queueing delay per DRAM burst
system.mem_ctrls2.avgBusLat                   5000.00                       # Average bus latency per DRAM burst
system.mem_ctrls2.avgMemAccLat               31982.39                       # Average memory access latency per DRAM burst
system.mem_ctrls2.avgRdBW                      112.76                       # Average DRAM read bandwidth in MiByte/s
system.mem_ctrls2.avgWrBW                       67.84                       # Average achieved write bandwidth in MiByte/s
system.mem_ctrls2.avgRdBWSys                   112.78                       # Average system read bandwidth in MiByte/s
system.mem_ctrls2.avgWrBWSys                    67.85                       # Average system write bandwidth in MiByte/s
system.mem_ctrls2.peakBW                     12800.00                       # Theoretical peak bandwidth in MiByte/s
system.mem_ctrls2.busUtil                        1.41                       # Data bus utilization in percentage
system.mem_ctrls2.busUtilRead                    0.88                       # Data bus utilization in percentage for reads
system.mem_ctrls2.busUtilWrite                   0.53                       # Data bus utilization in percentage for writes
system.mem_ctrls2.avgRdQLen                      1.08                       # Average read queue length when enqueuing
system.mem_ctrls2.avgWrQLen                      2.88                       # Average write queue length when enqueuing
system.mem_ctrls2.readRowHits                   55207                       # Number of row buffer hits during reads
system.mem_ctrls2.writeRowHits                  29581                       # Number of row buffer hits during writes
system.mem_ctrls2.readRowHitRate                77.35                       # Row buffer hit rate for reads
system.mem_ctrls2.writeRowHitRate               68.87                       # Row buffer hit rate for writes
system.mem_ctrls2.avgGap                    354310.92                       # Average gap between requests
system.mem_ctrls2.pageHitRate                   74.17                       # Row buffer hit rate, read and write combined
system.mem_ctrls2.memoryStateTime::IDLE   10538714500                       # Time in different power states
system.mem_ctrls2.memoryStateTime::REF     1352520000                       # Time in different power states
system.mem_ctrls2.memoryStateTime::PRE_PDN            0                       # Time in different power states
system.mem_ctrls2.memoryStateTime::ACT    28613238000                       # Time in different power states
system.mem_ctrls2.memoryStateTime::ACT_PDN            0                       # Time in different power states
system.mem_ctrls2.actEnergy::0              116265240                       # Energy for activate commands per rank (pJ)
system.mem_ctrls2.actEnergy::1              106890840                       # Energy for activate commands per rank (pJ)
system.mem_ctrls2.preEnergy::0               63438375                       # Energy for precharge commands per rank (pJ)
system.mem_ctrls2.preEnergy::1               58323375                       # Energy for precharge commands per rank (pJ)
system.mem_ctrls2.readEnergy::0             282828000                       # Energy for read commands per rank (pJ)
system.mem_ctrls2.readEnergy::1             273335400                       # Energy for read commands per rank (pJ)
system.mem_ctrls2.writeEnergy::0            141186240                       # Energy for write commands per rank (pJ)
system.mem_ctrls2.writeEnergy::1            137064960                       # Energy for write commands per rank (pJ)
system.mem_ctrls2.refreshEnergy::0         2645529120                       # Energy for refresh commands per rank (pJ)
system.mem_ctrls2.refreshEnergy::1         2645529120                       # Energy for refresh commands per rank (pJ)
system.mem_ctrls2.actBackEnergy::0        14932598940                       # Energy for active background per rank (pJ)
system.mem_ctrls2.actBackEnergy::1        14272482510                       # Energy for active background per rank (pJ)
system.mem_ctrls2.preBackEnergy::0        11203828500                       # Energy for precharge background per rank (pJ)
system.mem_ctrls2.preBackEnergy::1        11782878000                       # Energy for precharge background per rank (pJ)
system.mem_ctrls2.totalEnergy::0          29385674415                       # Total energy per rank (pJ)
system.mem_ctrls2.totalEnergy::1          29276504205                       # Total energy per rank (pJ)
system.mem_ctrls2.averagePower::0          725.494598                       # Core power per rank (mW)
system.mem_ctrls2.averagePower::1          722.799325                       # Core power per rank (mW)
system.mem_ctrls3.bytes_read::ruby.dir_cntrl3      4551040                       # Number of bytes read from this memory
system.mem_ctrls3.bytes_read::total           4551040                       # Number of bytes read from this memory
system.mem_ctrls3.bytes_written::ruby.dir_cntrl3      2743872                       # Number of bytes written to this memory
system.mem_ctrls3.bytes_written::total        2743872                       # Number of bytes written to this memory
system.mem_ctrls3.num_reads::ruby.dir_cntrl3        71110                       # Number of read requests responded to by this memory
system.mem_ctrls3.num_reads::total              71110                       # Number of read requests responded to by this memory
system.mem_ctrls3.num_writes::ruby.dir_cntrl3        42873                       # Number of write requests responded to by this memory
system.mem_ctrls3.num_writes::total             42873                       # Number of write requests responded to by this memory
system.mem_ctrls3.bw_read::ruby.dir_cntrl3    112338853                       # Total read bandwidth from this memory (bytes/s)
system.mem_ctrls3.bw_read::total            112338853                       # Total read bandwidth from this memory (bytes/s)
system.mem_ctrls3.bw_write::ruby.dir_cntrl3     67730328                       # Write bandwidth from this memory (bytes/s)
system.mem_ctrls3.bw_write::total            67730328                       # Write bandwidth from this memory (bytes/s)
system.mem_ctrls3.bw_total::ruby.dir_cntrl3    180069182                       # Total bandwidth to/from this memory (bytes/s)
system.mem_ctrls3.bw_total::total           180069182                       # Total bandwidth to/from this memory (bytes/s)
system.mem_ctrls3.readReqs                      71111                       # Number of read requests accepted
system.mem_ctrls3.writeReqs                     42873                       # Number of write requests accepted
system.mem_ctrls3.readBursts                    71111                       # Number of DRAM read bursts, including those serviced by the write queue
system.mem_ctrls3.writeBursts                   42873                       # Number of DRAM write bursts, including those merged in the write queue
system.mem_ctrls3.bytesReadDRAM               4550656                       # Total number of bytes read from DRAM
system.mem_ctrls3.bytesReadWrQ                    448                       # Total number of bytes read from write queue
system.mem_ctrls3.bytesWritten                2743744                       # Total number of bytes written to DRAM
system.mem_ctrls3.bytesReadSys                4551104                       # Total read bytes from the system interface side
system.mem_ctrls3.bytesWrittenSys             2743872                       # Total written bytes from the system interface side
system.mem_ctrls3.servicedByWrQ                     7                       # Number of DRAM read bursts serviced by the write queue
system.mem_ctrls3.mergedWrBursts                    0                       # Number of DRAM write bursts merged with an existing one
system.mem_ctrls3.neitherReadNorWriteReqs            0                       # Number of requests that are neither read nor write
system.mem_ctrls3.perBankRdBursts::0             4283                       # Per bank write bursts
system.mem_ctrls3.perBankRdBursts::1             4749                       # Per bank write bursts
system.mem_ctrls3.perBankRdBursts::2             4412                       # Per bank write bursts
system.mem_ctrls3.perBankRdBursts::3             4759                       # Per bank write bursts
system.mem_ctrls3.perBankRdBursts::4             4488                       # Per bank write bursts
system.mem_ctrls3.perBankRdBursts::5             4595                       # Per bank write bursts
system.mem_ctrls3.perBankRdBursts::6             4406                       # Per bank write bursts
system.mem_ctrls3.perBankRdBursts::7             4419                       # Per bank write bursts
system.mem_ctrls3.perBankRdBursts::8             4370                       # Per bank write bursts
system.mem_ctrls3.perBankRdBursts::9             4633                       # Per bank write bursts
system.mem_ctrls3.perBankRdBursts::10            4411                       # Per bank write bursts
system.mem_ctrls3.perBankRdBursts::11            4622                       # Per bank write bursts
system.mem_ctrls3.perBankRdBursts::12            4225                       # Per bank write bursts
system.mem_ctrls3.perBankRdBursts::13            4054                       # Per bank write bursts
system.mem_ctrls3.perBankRdBursts::14            4277                       # Per bank write bursts
system.mem_ctrls3.perBankRdBursts::15            4401                       # Per bank write bursts
system.mem_ctrls3.perBankWrBursts::0             2708                       # Per bank write bursts
system.mem_ctrls3.perBankWrBursts::1             2700                       # Per bank write bursts
system.mem_ctrls3.perBankWrBursts::2             2689                       # Per bank write bursts
system.mem_ctrls3.perBankWrBursts::3             2773                       # Per bank write bursts
system.mem_ctrls3.perBankWrBursts::4             2690                       # Per bank write bursts
system.mem_ctrls3.perBankWrBursts::5             2817                       # Per bank write bursts
system.mem_ctrls3.perBankWrBursts::6             2639                       # Per bank write bursts
system.mem_ctrls3.perBankWrBursts::7             2728                       # Per bank write bursts
system.mem_ctrls3.perBankWrBursts::8             2625                       # Per bank write bursts
system.mem_ctrls3.perBankWrBursts::9             2804                       # Per bank write bursts
system.mem_ctrls3.perBankWrBursts::10            2651                       # Per bank write bursts
system.mem_ctrls3.perBankWrBursts::11            2606                       # Per bank write bursts
system.mem_ctrls3.perBankWrBursts::12            2530                       # Per bank write bursts
system.mem_ctrls3.perBankWrBursts::13            2555                       # Per bank write bursts
system.mem_ctrls3.perBankWrBursts::14            2708                       # Per bank write bursts
system.mem_ctrls3.perBankWrBursts::15            2648                       # Per bank write bursts
system.mem_ctrls3.numRdRetry                        0                       # Number of times read queue was full causing retry
system.mem_ctrls3.numWrRetry                        6                       # Number of times write queue was full causing retry
system.mem_ctrls3.totGap                  40510970000                       # Total gap between requests
system.mem_ctrls3.readPktSize::0                    0                       # Read request sizes (log2)
system.mem_ctrls3.readPktSize::1                    0                       # Read request sizes (log2)
system.mem_ctrls3.readPktSize::2                    0                       # Read request sizes (log2)
system.mem_ctrls3.readPktSize::3                    0                       # Read request sizes (log2)
system.mem_ctrls3.readPktSize::4                    0                       # Read request sizes (log2)
system.mem_ctrls3.readPktSize::5                    0                       # Read request sizes (log2)
system.mem_ctrls3.readPktSize::6                71111                       # Read request sizes (log2)
system.mem_ctrls3.writePktSize::0                   0                       # Write request sizes (log2)
system.mem_ctrls3.writePktSize::1                   0                       # Write request sizes (log2)
system.mem_ctrls3.writePktSize::2                   0                       # Write request sizes (log2)
system.mem_ctrls3.writePktSize::3                   0                       # Write request sizes (log2)
system.mem_ctrls3.writePktSize::4                   0                       # Write request sizes (log2)
system.mem_ctrls3.writePktSize::5                   0                       # Write request sizes (log2)
system.mem_ctrls3.writePktSize::6               42873                       # Write request sizes (log2)
system.mem_ctrls3.rdQLenPdf::0                  50295                       # What read queue length does an incoming req see
system.mem_ctrls3.rdQLenPdf::1                  12035                       # What read queue length does an incoming req see
system.mem_ctrls3.rdQLenPdf::2                   6411                       # What read queue length does an incoming req see
system.mem_ctrls3.rdQLenPdf::3                   1544                       # What read queue length does an incoming req see
system.mem_ctrls3.rdQLenPdf::4                    591                       # What read queue length does an incoming req see
system.mem_ctrls3.rdQLenPdf::5                    199                       # What read queue length does an incoming req see
system.mem_ctrls3.rdQLenPdf::6                     29                       # What read queue length does an incoming req see
system.mem_ctrls3.rdQLenPdf::7                      0                       # What read queue length does an incoming req see
system.mem_ctrls3.rdQLenPdf::8                      0                       # What read queue length does an incoming req see
system.mem_ctrls3.rdQLenPdf::9                      0                       # What read queue length does an incoming req see
system.mem_ctrls3.rdQLenPdf::10                     0                       # What read queue length does an incoming req see
system.mem_ctrls3.rdQLenPdf::11                     0                       # What read queue length does an incoming req see
system.mem_ctrls3.rdQLenPdf::12                     0                       # What read queue length does an incoming req see
system.mem_ctrls3.rdQLenPdf::13                     0                       # What read queue length does an incoming req see
system.mem_ctrls3.rdQLenPdf::14                     0                       # What read queue length does an incoming req see
system.mem_ctrls3.rdQLenPdf::15                     0                       # What read queue length does an incoming req see
system.mem_ctrls3.rdQLenPdf::16                     0                       # What read queue length does an incoming req see
system.mem_ctrls3.rdQLenPdf::17                     0                       # What read queue length does an incoming req see
system.mem_ctrls3.rdQLenPdf::18                     0                       # What read queue length does an incoming req see
system.mem_ctrls3.rdQLenPdf::19                     0                       # What read queue length does an incoming req see
system.mem_ctrls3.rdQLenPdf::20                     0                       # What read queue length does an incoming req see
system.mem_ctrls3.rdQLenPdf::21                     0                       # What read queue length does an incoming req see
system.mem_ctrls3.rdQLenPdf::22                     0                       # What read queue length does an incoming req see
system.mem_ctrls3.rdQLenPdf::23                     0                       # What read queue length does an incoming req see
system.mem_ctrls3.rdQLenPdf::24                     0                       # What read queue length does an incoming req see
[...]
system.ruby.L2Cache_Controller.MCT_I.Ack_all::total          444                      
system.ruby.L2Cache_Controller.I_I.L1_GET_INSTR |           0      0.00%      0.00% |           0      0.00%      0.00% |           0      0.00%      0.00% |           0      0.00%      0.00% |           0      0.00%      0.00% |           0      0.00%      0.00% |           0      0.00%      0.00% |           1    100.00%    100.00% |           0      0.00%    100.00% |           0      0.00%    100.00% |           0      0.00%    100.00% |           0      0.00%    100.00% |           0      0.00%    100.00% |           0      0.00%    100.00% |           0      0.00%    100.00% |           0      0.00%    100.00% |           0      0.00%    100.00% |           0      0.00%    100.00% |           0      0.00%    100.00% |           0      0.00%    100.00% |           0      0.00%    100.00% |           0      0.00%    100.00% |           0      0.00%    100.00% |           0      0.00%    100.00% |           0      0.00%    100.00% |           0      0.00%    100.00% |           0      0.00%    100.00% |           0      0.00%    100.00% |           0      0.00%    100.00% |           0      0.00%    100.00% |           0      0.00%    100.00% |           0      0.00%    100.00%
system.ruby.L2Cache_Controller.I_I.L1_GET_INSTR::total            1                      
system.ruby.L2Cache_Controller.I_I.Ack_all |         401      3.23%      3.23% |         360      2.90%      6.13% |         376      3.03%      9.16% |         374      3.01%     12.17% |         380      3.06%     15.23% |         368      2.96%     18.20% |         379      3.05%     21.25% |         386      3.11%     24.36% |         372      3.00%     27.36% |         384      3.09%     30.45% |         409      3.29%     33.74% |         407      3.28%     37.02% |         413      3.33%     40.35% |         411      3.31%     43.66% |         411      3.31%     46.97% |         407      3.28%     50.25% |         415      3.34%     53.59% |         390      3.14%     56.73% |         389      3.13%     59.87% |         371      2.99%     62.86% |         362      2.92%     65.77% |         373      3.00%     68.78% |         376      3.03%     71.81% |         372      3.00%     74.80% |         399      3.21%     78.02% |         412      3.32%     81.34% |         418      3.37%     84.70% |         379      3.05%     87.76% |         380      3.06%     90.82% |         380      3.06%     93.88% |         384      3.09%     96.97% |         376      3.03%    100.00%
system.ruby.L2Cache_Controller.I_I.Ack_all::total        12414                      
system.ruby.L2Cache_Controller.S_I.Ack   |           0      0.00%      0.00% |           1     20.00%     20.00% |           1     20.00%     40.00% |           1     20.00%     60.00% |           0      0.00%     60.00% |           0      0.00%     60.00% |           1     20.00%     80.00% |           0      0.00%     80.00% |           0      0.00%     80.00% |           1     20.00%    100.00% |           0      0.00%    100.00% |           0      0.00%    100.00% |           0      0.00%    100.00% |           0      0.00%    100.00% |           0      0.00%    100.00% |           0      0.00%    100.00% |           0      0.00%    100.00% |           0      0.00%    100.00% |           0      0.00%    100.00% |           0      0.00%    100.00% |           0      0.00%    100.00% |           0      0.00%    100.00% |           0      0.00%    100.00% |           0      0.00%    100.00% |           0      0.00%    100.00% |           0      0.00%    100.00% |           0      0.00%    100.00% |           0      0.00%    100.00% |           0      0.00%    100.00% |           0      0.00%    100.00% |           0      0.00%    100.00% |           0      0.00%    100.00%
system.ruby.L2Cache_Controller.S_I.Ack::total            5                      
system.ruby.L2Cache_Controller.S_I.Ack_all |           1      4.55%      4.55% |           2      9.09%     13.64% |           3     13.64%     27.27% |           2      9.09%     36.36% |           0      0.00%     36.36% |           2      9.09%     45.45% |           3     13.64%     59.09% |           0      0.00%     59.09% |           0      0.00%     59.09% |           1      4.55%     63.64% |           0      0.00%     63.64% |           0      0.00%     63.64% |           0      0.00%     63.64% |           0      0.00%     63.64% |           1      4.55%     68.18% |           0      0.00%     68.18% |           0      0.00%     68.18% |           0      0.00%     68.18% |           1      4.55%     72.73% |           0      0.00%     72.73% |           0      0.00%     72.73% |           1      4.55%     77.27% |           0      0.00%     77.27% |           1      4.55%     81.82% |           1      4.55%     86.36% |           0      0.00%     86.36% |           0      0.00%     86.36% |           1      4.55%     90.91% |           0      0.00%     90.91% |           0      0.00%     90.91% |           0      0.00%     90.91% |           2      9.09%    100.00%
system.ruby.L2Cache_Controller.S_I.Ack_all::total           22                      
system.ruby.L2Cache_Controller.ISS.Mem_Data |        5749      4.63%      4.63% |        3871      3.12%      7.75% |        3896      3.14%     10.89% |        3840      3.09%     13.99% |        3833      3.09%     17.08% |        3818      3.08%     20.15% |        3814      3.07%     23.23% |        3810      3.07%     26.30% |        3824      3.08%     29.38% |        3855      3.11%     32.49% |        3859      3.11%     35.60% |        3800      3.06%     38.66% |        3806      3.07%     41.73% |        3814      3.07%     44.80% |        3809      3.07%     47.87% |        3787      3.05%     50.93% |        3805      3.07%     53.99% |        3803      3.07%     57.06% |        3818      3.08%     60.13% |        3801      3.06%     63.20% |        3817      3.08%     66.27% |        3801      3.06%     69.34% |        3825      3.08%     72.42% |        3794      3.06%     75.48% |        3813      3.07%     78.55% |        3839      3.09%     81.65% |        3806      3.07%     84.71% |        3784      3.05%     87.76% |        3823      3.08%     90.84% |        3799      3.06%     93.91% |        3769      3.04%     96.94% |        3792      3.06%    100.00%
system.ruby.L2Cache_Controller.ISS.Mem_Data::total       124074                      
system.ruby.L2Cache_Controller.IS.Mem_Data |         400      3.22%      3.22% |         360      2.90%      6.12% |         378      3.04%      9.16% |         373      3.00%     12.16% |         379      3.05%     15.21% |         365      2.94%     18.15% |         379      3.05%     21.20% |         387      3.12%     24.32% |         375      3.02%     27.34% |         386      3.11%     30.44% |         408      3.28%     33.73% |         405      3.26%     36.99% |         413      3.32%     40.31% |         410      3.30%     43.61% |         409      3.29%     46.90% |         409      3.29%     50.20% |         417      3.36%     53.55% |         391      3.15%     56.70% |         390      3.14%     59.84% |         374      3.01%     62.85% |         362      2.91%     65.77% |         372      2.99%     68.76% |         375      3.02%     71.78% |         373      3.00%     74.78% |         398      3.20%     77.98% |         411      3.31%     81.29% |         417      3.36%     84.65% |         381      3.07%     87.72% |         383      3.08%     90.80% |         383      3.08%     93.88% |         386      3.11%     96.99% |         374      3.01%    100.00%
system.ruby.L2Cache_Controller.IS.Mem_Data::total        12423                      
system.ruby.L2Cache_Controller.IM.Mem_Data |        4708      3.13%      3.13% |        4697      3.12%      6.24% |        4707      3.13%      9.37% |        4714      3.13%     12.50% |        4704      3.12%     15.62% |        4711      3.13%     18.75% |        4710      3.13%     21.88% |        4694      3.12%     24.99% |        4711      3.13%     28.12% |        4711      3.13%     31.25% |        4696      3.12%     34.37% |        4715      3.13%     37.50% |        4701      3.12%     40.62% |        4703      3.12%     43.74% |        4702      3.12%     46.86% |        4698      3.12%     49.98% |        4716      3.13%     53.11% |        4710      3.13%     56.24% |        4713      3.13%     59.37% |        4706      3.12%     62.50% |        4709      3.13%     65.62% |        4722      3.14%     68.76% |        4701      3.12%     71.88% |        4707      3.13%     75.00% |        4720      3.13%     78.14% |        4710      3.13%     81.26% |        4717      3.13%     84.40% |        4703      3.12%     87.52% |        4704      3.12%     90.64% |        4700      3.12%     93.76% |        4705      3.12%     96.89% |        4689      3.11%    100.00%
system.ruby.L2Cache_Controller.IM.Mem_Data::total       150614                      
system.ruby.L2Cache_Controller.SS_MB.Exclusive_Unblock |           3      6.82%      6.82% |           6     13.64%     20.45% |           3      6.82%     27.27% |           4      9.09%     36.36% |           0      0.00%     36.36% |           0      0.00%     36.36% |           0      0.00%     36.36% |           0      0.00%     36.36% |           0      0.00%     36.36% |           0      0.00%     36.36% |           0      0.00%     36.36% |           0      0.00%     36.36% |           3      6.82%     43.18% |           0      0.00%     43.18% |           4      9.09%     52.27% |           0      0.00%     52.27% |           1      2.27%     54.55% |           0      0.00%     54.55% |          11     25.00%     79.55% |           2      4.55%     84.09% |           0      0.00%     84.09% |           1      2.27%     86.36% |           0      0.00%     86.36% |           1      2.27%     88.64% |           1      2.27%     90.91% |           0      0.00%     90.91% |           1      2.27%     93.18% |           2      4.55%     97.73% |           1      2.27%    100.00% |           0      0.00%    100.00% |           0      0.00%    100.00% |           0      0.00%    100.00%
system.ruby.L2Cache_Controller.SS_MB.Exclusive_Unblock::total           44                      
system.ruby.L2Cache_Controller.MT_MB.Exclusive_Unblock |       59916     12.15%     12.15% |       15539      3.15%     15.31% |       12752      2.59%     17.89% |       14802      3.00%     20.90% |       13337      2.71%     23.60% |       12720      2.58%     26.18% |       12243      2.48%     28.67% |       12904      2.62%     31.28% |       13098      2.66%     33.94% |       12758      2.59%     36.53% |       15514      3.15%     39.68% |       15761      3.20%     42.87% |       14130      2.87%     45.74% |       13216      2.68%     48.42% |       12000      2.43%     50.86% |       12462      2.53%     53.38% |       13466      2.73%     56.12% |       12805      2.60%     58.71% |       13230      2.68%     61.40% |       14224      2.89%     64.28% |       14902      3.02%     67.31% |       15854      3.22%     70.52% |       13723      2.78%     73.31% |       13756      2.79%     76.10% |       13838      2.81%     78.90% |       13399      2.72%     81.62% |       13252      2.69%     84.31% |       12959      2.63%     86.94% |       15565      3.16%     90.10% |       13987      2.84%     92.93% |       16361      3.32%     96.25% |       18468      3.75%    100.00%
system.ruby.L2Cache_Controller.MT_MB.Exclusive_Unblock::total       492941                      
system.ruby.L2Cache_Controller.MT_IIB.WB_Data |           0      0.00%      0.00% |           1     20.00%     20.00% |           1     20.00%     40.00% |           1     20.00%     60.00% |           0      0.00%     60.00% |           0      0.00%     60.00% |           1     20.00%     80.00% |           0      0.00%     80.00% |           0      0.00%     80.00% |           1     20.00%    100.00% |           0      0.00%    100.00% |           0      0.00%    100.00% |           0      0.00%    100.00% |           0      0.00%    100.00% |           0      0.00%    100.00% |           0      0.00%    100.00% |           0      0.00%    100.00% |           0      0.00%    100.00% |           0      0.00%    100.00% |           0      0.00%    100.00% |           0      0.00%    100.00% |           0      0.00%    100.00% |           0      0.00%    100.00% |           0      0.00%    100.00% |           0      0.00%    100.00% |           0      0.00%    100.00% |           0      0.00%    100.00% |           0      0.00%    100.00% |           0      0.00%    100.00% |           0      0.00%    100.00% |           0      0.00%    100.00% |           0      0.00%    100.00%
system.ruby.L2Cache_Controller.MT_IIB.WB_Data::total            5                      
system.ruby.L2Cache_Controller.MT_SB.Unblock |           0      0.00%      0.00% |           1     20.00%     20.00% |           1     20.00%     40.00% |           1     20.00%     60.00% |           0      0.00%     60.00% |           0      0.00%     60.00% |           1     20.00%     80.00% |           0      0.00%     80.00% |           0      0.00%     80.00% |           1     20.00%    100.00% |           0      0.00%    100.00% |           0      0.00%    100.00% |           0      0.00%    100.00% |           0      0.00%    100.00% |           0      0.00%    100.00% |           0      0.00%    100.00% |           0      0.00%    100.00% |           0      0.00%    100.00% |           0      0.00%    100.00% |           0      0.00%    100.00% |           0      0.00%    100.00% |           0      0.00%    100.00% |           0      0.00%    100.00% |           0      0.00%    100.00% |           0      0.00%    100.00% |           0      0.00%    100.00% |           0      0.00%    100.00% |           0      0.00%    100.00% |           0      0.00%    100.00% |           0      0.00%    100.00% |           0      0.00%    100.00% |           0      0.00%    100.00%
system.ruby.L2Cache_Controller.MT_SB.Unblock::total            5                      
system.ruby.SimicsNetworkPortInterface_Controller.MessageSend |        9991      7.12%      7.12% |       70151     50.00%     57.12% |       60160     42.88%    100.00% |           0      0.00%    100.00% |           0      0.00%    100.00% |           0      0.00%    100.00% |           0      0.00%    100.00% |           0      0.00%    100.00% |           0      0.00%    100.00% |           0      0.00%    100.00% |           0      0.00%    100.00% |           0      0.00%    100.00% |           0      0.00%    100.00% |           0      0.00%    100.00% |           0      0.00%    100.00% |           0      0.00%    100.00% |           0      0.00%    100.00% |           0      0.00%    100.00% |           0      0.00%    100.00% |           0      0.00%    100.00% |           0      0.00%    100.00% |           0      0.00%    100.00% |           0      0.00%    100.00% |           0      0.00%    100.00% |           0      0.00%    100.00% |           0      0.00%    100.00% |           0      0.00%    100.00% |           0      0.00%    100.00% |           0      0.00%    100.00% |           0      0.00%    100.00% |           0      0.00%    100.00% |           0      0.00%    100.00%
system.ruby.SimicsNetworkPortInterface_Controller.MessageSend::total       140302                      
system.ruby.SimicsNetworkPortInterface_Controller.MessageRecv |        9991      7.12%      7.12% |       70151     50.00%     57.12% |       60160     42.88%    100.00% |           0      0.00%    100.00% |           0      0.00%    100.00% |           0      0.00%    100.00% |           0      0.00%    100.00% |           0      0.00%    100.00% |           0      0.00%    100.00% |           0      0.00%    100.00% |           0      0.00%    100.00% |           0      0.00%    100.00% |           0      0.00%    100.00% |           0      0.00%    100.00% |           0      0.00%    100.00% |           0      0.00%    100.00% |           0      0.00%    100.00% |           0      0.00%    100.00% |           0      0.00%    100.00% |           0      0.00%    100.00% |           0      0.00%    100.00% |           0      0.00%    100.00% |           0      0.00%    100.00% |           0      0.00%    100.00% |           0      0.00%    100.00% |           0      0.00%    100.00% |           0      0.00%    100.00% |           0      0.00%    100.00% |           0      0.00%    100.00% |           0      0.00%    100.00% |           0      0.00%    100.00% |           0      0.00%    100.00%
system.ruby.SimicsNetworkPortInterface_Controller.MessageRecv::total       140302                      
system.ruby.SimicsNetworkPortInterface_Controller.A.MessageSend |        9991      7.12%      7.12% |       70151     50.00%     57.12% |       60160     42.88%    100.00% |           0      0.00%    100.00% |           0      0.00%    100.00% |           0      0.00%    100.00% |           0      0.00%    100.00% |           0      0.00%    100.00% |           0      0.00%    100.00% |           0      0.00%    100.00% |           0      0.00%    100.00% |           0      0.00%    100.00% |           0      0.00%    100.00% |           0      0.00%    100.00% |           0      0.00%    100.00% |           0      0.00%    100.00% |           0      0.00%    100.00% |           0      0.00%    100.00% |           0      0.00%    100.00% |           0      0.00%    100.00% |           0      0.00%    100.00% |           0      0.00%    100.00% |           0      0.00%    100.00% |           0      0.00%    100.00% |           0      0.00%    100.00% |           0      0.00%    100.00% |           0      0.00%    100.00% |           0      0.00%    100.00% |           0      0.00%    100.00% |           0      0.00%    100.00% |           0      0.00%    100.00% |           0      0.00%    100.00%
system.ruby.SimicsNetworkPortInterface_Controller.A.MessageSend::total       140302                      
system.ruby.SimicsNetworkPortInterface_Controller.A.MessageRecv |        9991      7.12%      7.12% |       70151     50.00%     57.12% |       60160     42.88%    100.00% |           0      0.00%    100.00% |           0      0.00%    100.00% |           0      0.00%    100.00% |           0      0.00%    100.00% |           0      0.00%    100.00% |           0      0.00%    100.00% |           0      0.00%    100.00% |           0      0.00%    100.00% |           0      0.00%    100.00% |           0      0.00%    100.00% |           0      0.00%    100.00% |           0      0.00%    100.00% |           0      0.00%    100.00% |           0      0.00%    100.00% |           0      0.00%    100.00% |           0      0.00%    100.00% |           0      0.00%    100.00% |           0      0.00%    100.00% |           0      0.00%    100.00% |           0      0.00%    100.00% |           0      0.00%    100.00% |           0      0.00%    100.00% |           0      0.00%    100.00% |           0      0.00%    100.00% |           0      0.00%    100.00% |           0      0.00%    100.00% |           0      0.00%    100.00% |           0      0.00%    100.00% |           0      0.00%    100.00%
system.ruby.SimicsNetworkPortInterface_Controller.A.MessageRecv::total       140302                      
system.switch_cpus.kern.inst.arm                    0                       # number of arm instructions executed
system.switch_cpus.kern.inst.quiesce                0                       # number of quiesce instructions executed

---------- End Simulation Statistics   ----------
