
---------- Begin Simulation Statistics ----------
sim_seconds                                  0.061565                       # Number of seconds simulated
sim_ticks                                 61564638000                       # Number of ticks simulated
final_tick                               5237732716500                       # Number of ticks from beginning of simulation (restored from checkpoints and never reset)
sim_freq                                 1000000000000                       # Frequency of simulated ticks
host_inst_rate                                  37118                       # Simulator instruction rate (inst/s)
host_op_rate                                    64117                       # Simulator op (including micro ops) rate (op/s)
host_tick_rate                               80347923                       # Simulator tick rate (ticks/s)
host_mem_usage                                3540196                       # Number of bytes of host memory used
host_seconds                                   766.23                       # Real time elapsed on the host
sim_insts                                    28441088                       # Number of instructions simulated
sim_ops                                      49127971                       # Number of ops (including micro ops) simulated
system.voltage_domain.voltage                       1                       # Voltage in Volts
system.clk_domain.clock                           500                       # Clock period in ticks
system.mem_ctrls0.bytes_read::ruby.dir_cntrl0     12610816                       # Number of bytes read from this memory
system.mem_ctrls0.bytes_read::total          12610816                       # Number of bytes read from this memory
system.mem_ctrls0.bytes_written::ruby.dir_cntrl0      8056576                       # Number of bytes written to this memory
system.mem_ctrls0.bytes_written::total        8056576                       # Number of bytes written to this memory
system.mem_ctrls0.num_reads::ruby.dir_cntrl0       197044                       # Number of read requests responded to by this memory
system.mem_ctrls0.num_reads::total             197044                       # Number of read requests responded to by this memory
system.mem_ctrls0.num_writes::ruby.dir_cntrl0       125884                       # Number of write requests responded to by this memory
system.mem_ctrls0.num_writes::total            125884                       # Number of write requests responded to by this memory
system.mem_ctrls0.bw_read::ruby.dir_cntrl0    204838628                       # Total read bandwidth from this memory (bytes/s)
system.mem_ctrls0.bw_read::total            204838628                       # Total read bandwidth from this memory (bytes/s)
system.mem_ctrls0.bw_write::ruby.dir_cntrl0    130863695                       # Write bandwidth from this memory (bytes/s)
system.mem_ctrls0.bw_write::total           130863695                       # Write bandwidth from this memory (bytes/s)
system.mem_ctrls0.bw_total::ruby.dir_cntrl0    335702323                       # Total bandwidth to/from this memory (bytes/s)
system.mem_ctrls0.bw_total::total           335702323                       # Total bandwidth to/from this memory (bytes/s)
system.mem_ctrls0.readReqs                     197044                       # Number of read requests accepted
system.mem_ctrls0.writeReqs                    125884                       # Number of write requests accepted
system.mem_ctrls0.readBursts                   197044                       # Number of DRAM read bursts, including those serviced by the write queue
system.mem_ctrls0.writeBursts                  125884                       # Number of DRAM write bursts, including those merged in the write queue
system.mem_ctrls0.bytesReadDRAM              12609152                       # Total number of bytes read from DRAM
system.mem_ctrls0.bytesReadWrQ                   1664                       # Total number of bytes read from write queue
system.mem_ctrls0.bytesWritten                8056448                       # Total number of bytes written to DRAM
system.mem_ctrls0.bytesReadSys               12610816                       # Total read bytes from the system interface side
system.mem_ctrls0.bytesWrittenSys             8056576                       # Total written bytes from the system interface side
system.mem_ctrls0.servicedByWrQ                    26                       # Number of DRAM read bursts serviced by the write queue
system.mem_ctrls0.mergedWrBursts                    0                       # Number of DRAM write bursts merged with an existing one
system.mem_ctrls0.neitherReadNorWriteReqs            0                       # Number of requests that are neither read nor write
system.mem_ctrls0.perBankRdBursts::0            12044                       # Per bank write bursts
system.mem_ctrls0.perBankRdBursts::1            12162                       # Per bank write bursts
system.mem_ctrls0.perBankRdBursts::2            12105                       # Per bank write bursts
system.mem_ctrls0.perBankRdBursts::3            12453                       # Per bank write bursts
system.mem_ctrls0.perBankRdBursts::4            12242                       # Per bank write bursts
system.mem_ctrls0.perBankRdBursts::5            12286                       # Per bank write bursts
system.mem_ctrls0.perBankRdBursts::6            12483                       # Per bank write bursts
system.mem_ctrls0.perBankRdBursts::7            12619                       # Per bank write bursts
system.mem_ctrls0.perBankRdBursts::8            12395                       # Per bank write bursts
system.mem_ctrls0.perBankRdBursts::9            12783                       # Per bank write bursts
system.mem_ctrls0.perBankRdBursts::10           12392                       # Per bank write bursts
system.mem_ctrls0.perBankRdBursts::11           12667                       # Per bank write bursts
system.mem_ctrls0.perBankRdBursts::12           12231                       # Per bank write bursts
system.mem_ctrls0.perBankRdBursts::13           12027                       # Per bank write bursts
system.mem_ctrls0.perBankRdBursts::14           12228                       # Per bank write bursts
system.mem_ctrls0.perBankRdBursts::15           11901                       # Per bank write bursts
system.mem_ctrls0.perBankWrBursts::0             7803                       # Per bank write bursts
system.mem_ctrls0.perBankWrBursts::1             7660                       # Per bank write bursts
system.mem_ctrls0.perBankWrBursts::2             7801                       # Per bank write bursts
system.mem_ctrls0.perBankWrBursts::3             7880                       # Per bank write bursts
system.mem_ctrls0.perBankWrBursts::4             7803                       # Per bank write bursts
system.mem_ctrls0.perBankWrBursts::5             7877                       # Per bank write bursts
system.mem_ctrls0.perBankWrBursts::6             7995                       # Per bank write bursts
system.mem_ctrls0.perBankWrBursts::7             8059                       # Per bank write bursts
system.mem_ctrls0.perBankWrBursts::8             7920                       # Per bank write bursts
system.mem_ctrls0.perBankWrBursts::9             8099                       # Per bank write bursts
system.mem_ctrls0.perBankWrBursts::10            7908                       # Per bank write bursts
system.mem_ctrls0.perBankWrBursts::11            7916                       # Per bank write bursts
system.mem_ctrls0.perBankWrBursts::12            7796                       # Per bank write bursts
system.mem_ctrls0.perBankWrBursts::13            7829                       # Per bank write bursts
system.mem_ctrls0.perBankWrBursts::14            7908                       # Per bank write bursts
system.mem_ctrls0.perBankWrBursts::15            7628                       # Per bank write bursts
system.mem_ctrls0.numRdRetry                        0                       # Number of times read queue was full causing retry
system.mem_ctrls0.numWrRetry                      217                       # Number of times write queue was full causing retry
system.mem_ctrls0.totGap                  61564144000                       # Total gap between requests
system.mem_ctrls0.readPktSize::0                    0                       # Read request sizes (log2)
system.mem_ctrls0.readPktSize::1                    0                       # Read request sizes (log2)
system.mem_ctrls0.readPktSize::2                    0                       # Read request sizes (log2)
system.mem_ctrls0.readPktSize::3                    0                       # Read request sizes (log2)
system.mem_ctrls0.readPktSize::4                    0                       # Read request sizes (log2)
system.mem_ctrls0.readPktSize::5                    0                       # Read request sizes (log2)
system.mem_ctrls0.readPktSize::6               197044                       # Read request sizes (log2)
system.mem_ctrls0.writePktSize::0                   0                       # Write request sizes (log2)
system.mem_ctrls0.writePktSize::1                   0                       # Write request sizes (log2)
system.mem_ctrls0.writePktSize::2                   0                       # Write request sizes (log2)
system.mem_ctrls0.writePktSize::3                   0                       # Write request sizes (log2)
system.mem_ctrls0.writePktSize::4                   0                       # Write request sizes (log2)
system.mem_ctrls0.writePktSize::5                   0                       # Write request sizes (log2)
system.mem_ctrls0.writePktSize::6              125884                       # Write request sizes (log2)
system.mem_ctrls0.rdQLenPdf::0                 134302                       # What read queue length does an incoming req see
system.mem_ctrls0.rdQLenPdf::1                  27510                       # What read queue length does an incoming req see
system.mem_ctrls0.rdQLenPdf::2                  16861                       # What read queue length does an incoming req see
system.mem_ctrls0.rdQLenPdf::3                   8866                       # What read queue length does an incoming req see
system.mem_ctrls0.rdQLenPdf::4                   4207                       # What read queue length does an incoming req see
system.mem_ctrls0.rdQLenPdf::5                   2531                       # What read queue length does an incoming req see
system.mem_ctrls0.rdQLenPdf::6                   1510                       # What read queue length does an incoming req see
system.mem_ctrls0.rdQLenPdf::7                    835                       # What read queue length does an incoming req see
system.mem_ctrls0.rdQLenPdf::8                    278                       # What read queue length does an incoming req see
system.mem_ctrls0.rdQLenPdf::9                     82                       # What read queue length does an incoming req see
system.mem_ctrls0.rdQLenPdf::10                    27                       # What read queue length does an incoming req see
system.mem_ctrls0.rdQLenPdf::11                     5                       # What read queue length does an incoming req see
system.mem_ctrls0.rdQLenPdf::12                     3                       # What read queue length does an incoming req see
system.mem_ctrls0.rdQLenPdf::13                     1                       # What read queue length does an incoming req see
system.mem_ctrls0.rdQLenPdf::14                     0                       # What read queue length does an incoming req see
system.mem_ctrls0.rdQLenPdf::15                     0                       # What read queue length does an incoming req see
system.mem_ctrls0.rdQLenPdf::16                     0                       # What read queue length does an incoming req see
system.mem_ctrls0.rdQLenPdf::17                     0                       # What read queue length does an incoming req see
system.mem_ctrls0.rdQLenPdf::18                     0                       # What read queue length does an incoming req see
system.mem_ctrls0.rdQLenPdf::19                     0                       # What read queue length does an incoming req see
system.mem_ctrls0.rdQLenPdf::20                     0                       # What read queue length does an incoming req see
system.mem_ctrls0.rdQLenPdf::21                     0                       # What read queue length does an incoming req see
system.mem_ctrls0.rdQLenPdf::22                     0                       # What read queue length does an incoming req see
system.mem_ctrls0.rdQLenPdf::23                     0                       # What read queue length does an incoming req see
system.mem_ctrls0.rdQLenPdf::24                     0                       # What read queue length does an incoming req see
system.mem_ctrls0.rdQLenPdf::25                     0                       # What read queue length does an incoming req see
system.mem_ctrls0.rdQLenPdf::26                     0                       # What read queue length does an incoming req see
system.mem_ctrls0.rdQLenPdf::27                     0                       # What read queue length does an incoming req see
system.mem_ctrls0.rdQLenPdf::28                     0                       # What read queue length does an incoming req see
system.mem_ctrls0.rdQLenPdf::29                     0                       # What read queue length does an incoming req see
system.mem_ctrls0.rdQLenPdf::30                     0                       # What read queue length does an incoming req see
system.mem_ctrls0.rdQLenPdf::31                     0                       # What read queue length does an incoming req see
system.mem_ctrls0.wrQLenPdf::0                  23498                       # What write queue length does an incoming req see
system.mem_ctrls0.wrQLenPdf::1                  25004                       # What write queue length does an incoming req see
system.mem_ctrls0.wrQLenPdf::2                  25092                       # What write queue length does an incoming req see
system.mem_ctrls0.wrQLenPdf::3                  24882                       # What write queue length does an incoming req see
system.mem_ctrls0.wrQLenPdf::4                  24904                       # What write queue length does an incoming req see
system.mem_ctrls0.wrQLenPdf::5                   1295                       # What write queue length does an incoming req see
system.mem_ctrls0.wrQLenPdf::6                    668                       # What write queue length does an incoming req see
system.mem_ctrls0.wrQLenPdf::7                    541                       # What write queue length does an incoming req see
system.mem_ctrls0.bytesPerActivate::samples        70299                       # Bytes accessed per row activation
system.mem_ctrls0.bytesPerActivate::mean   293.953541                       # Bytes accessed per row activation
system.mem_ctrls0.bytesPerActivate::gmean   196.795999                       # Bytes accessed per row activation
system.mem_ctrls0.bytesPerActivate::stdev   278.147327                       # Bytes accessed per row activation
system.mem_ctrls0.bytesPerActivate::0-127        20863     29.68%     29.68% # Bytes accessed per row activation
system.mem_ctrls0.bytesPerActivate::128-255        14240     20.26%     49.93% # Bytes accessed per row activation
system.mem_ctrls0.bytesPerActivate::256-383        20728     29.49%     79.42% # Bytes accessed per row activation
system.mem_ctrls0.bytesPerActivate::384-511         3593      5.11%     84.53% # Bytes accessed per row activation
system.mem_ctrls0.bytesPerActivate::512-639         1990      2.83%     87.36% # Bytes accessed per row activation
system.mem_ctrls0.bytesPerActivate::640-767         1244      1.77%     89.13% # Bytes accessed per row activation
system.mem_ctrls0.bytesPerActivate::768-895          919      1.31%     90.44% # Bytes accessed per row activation
system.mem_ctrls0.bytesPerActivate::896-1023         1022      1.45%     91.89% # Bytes accessed per row activation
system.mem_ctrls0.bytesPerActivate::1024-1151         5700      8.11%    100.00% # Bytes accessed per row activation
system.mem_ctrls0.bytesPerActivate::total        70299                       # Bytes accessed per row activation
system.mem_ctrls0.rdPerTurnAround::samples        23497                       # Reads before turning the bus around for writes
system.mem_ctrls0.rdPerTurnAround::mean      8.384687                       # Reads before turning the bus around for writes
system.mem_ctrls0.rdPerTurnAround::stdev    28.205580                       # Reads before turning the bus around for writes
system.mem_ctrls0.rdPerTurnAround::0-127        23481     99.93%     99.93% # Reads before turning the bus around for writes
system.mem_ctrls0.rdPerTurnAround::128-255           15      0.06%    100.00% # Reads before turning the bus around for writes
system.mem_ctrls0.rdPerTurnAround::3968-4095            1      0.00%    100.00% # Reads before turning the bus around for writes
system.mem_ctrls0.rdPerTurnAround::total        23497                       # Reads before turning the bus around for writes
system.mem_ctrls0.wrPerTurnAround::samples        23497                       # Writes before turning the bus around for reads
system.mem_ctrls0.wrPerTurnAround::mean      5.357365                       # Writes before turning the bus around for reads
system.mem_ctrls0.wrPerTurnAround::gmean     5.285360                       # Writes before turning the bus around for reads
system.mem_ctrls0.wrPerTurnAround::stdev     1.049470                       # Writes before turning the bus around for reads
system.mem_ctrls0.wrPerTurnAround::4-5          19840     84.44%     84.44% # Writes before turning the bus around for reads
system.mem_ctrls0.wrPerTurnAround::6-7           2410     10.26%     94.69% # Writes before turning the bus around for reads
system.mem_ctrls0.wrPerTurnAround::8-9            867      3.69%     98.38% # Writes before turning the bus around for reads
system.mem_ctrls0.wrPerTurnAround::10-11          279      1.19%     99.57% # Writes before turning the bus around for reads
system.mem_ctrls0.wrPerTurnAround::12-13           90      0.38%     99.95% # Writes before turning the bus around for reads
system.mem_ctrls0.wrPerTurnAround::14-15           11      0.05%    100.00% # Writes before turning the bus around for reads
system.mem_ctrls0.wrPerTurnAround::total        23497                       # Writes before turning the bus around for reads
system.mem_ctrls0.totQLat                  3570782784                       # Total ticks spent queuing
system.mem_ctrls0.totMemAccLat             7264870284                       # Total ticks spent from burst creation until serviced by the DRAM
system.mem_ctrls0.totBusLat                 985090000                       # Total ticks spent in databus transfers
system.mem_ctrls0.avgQLat                    18124.14                       # Average queueing delay per DRAM burst
system.mem_ctrls0.avgBusLat                   5000.00                       # Average bus latency per DRAM burst
system.mem_ctrls0.avgMemAccLat               36874.14                       # Average memory access latency per DRAM burst
system.mem_ctrls0.avgRdBW                      204.81                       # Average DRAM read bandwidth in MiByte/s
system.mem_ctrls0.avgWrBW                      130.86                       # Average achieved write bandwidth in MiByte/s
system.mem_ctrls0.avgRdBWSys                   204.84                       # Average system read bandwidth in MiByte/s
system.mem_ctrls0.avgWrBWSys                   130.86                       # Average system write bandwidth in MiByte/s
system.mem_ctrls0.peakBW                     12800.00                       # Theoretical peak bandwidth in MiByte/s
system.mem_ctrls0.busUtil                        2.62                       # Data bus utilization in percentage
system.mem_ctrls0.busUtilRead                    1.60                       # Data bus utilization in percentage for reads
system.mem_ctrls0.busUtilWrite                   1.02                       # Data bus utilization in percentage for writes
system.mem_ctrls0.avgRdQLen                      1.10                       # Average read queue length when enqueuing
system.mem_ctrls0.avgWrQLen                      2.90                       # Average write queue length when enqueuing
system.mem_ctrls0.readRowHits                  160166                       # Number of row buffer hits during reads
system.mem_ctrls0.writeRowHits                  92422                       # Number of row buffer hits during writes
system.mem_ctrls0.readRowHitRate                81.30                       # Row buffer hit rate for reads
system.mem_ctrls0.writeRowHitRate               73.42                       # Row buffer hit rate for writes
system.mem_ctrls0.avgGap                    190643.56                       # Average gap between requests
system.mem_ctrls0.pageHitRate                   78.22                       # Row buffer hit rate, read and write combined
system.mem_ctrls0.memoryStateTime::IDLE   11703318500                       # Time in different power states
system.mem_ctrls0.memoryStateTime::REF     2055560000                       # Time in different power states
system.mem_ctrls0.memoryStateTime::PRE_PDN            0                       # Time in different power states
system.mem_ctrls0.memoryStateTime::ACT    47800273500                       # Time in different power states
system.mem_ctrls0.memoryStateTime::ACT_PDN            0                       # Time in different power states
system.mem_ctrls0.actEnergy::0              268334640                       # Energy for activate commands per rank (pJ)
system.mem_ctrls0.actEnergy::1              262997280                       # Energy for activate commands per rank (pJ)
system.mem_ctrls0.preEnergy::0              146412750                       # Energy for precharge commands per rank (pJ)
system.mem_ctrls0.preEnergy::1              143500500                       # Energy for precharge commands per rank (pJ)
system.mem_ctrls0.readEnergy::0             767418600                       # Energy for read commands per rank (pJ)
system.mem_ctrls0.readEnergy::1             768807000                       # Energy for read commands per rank (pJ)
system.mem_ctrls0.writeEnergy::0            407436480                       # Energy for write commands per rank (pJ)
system.mem_ctrls0.writeEnergy::1            408116880                       # Energy for write commands per rank (pJ)
system.mem_ctrls0.refreshEnergy::0         4020675360                       # Energy for refresh commands per rank (pJ)
system.mem_ctrls0.refreshEnergy::1         4020675360                       # Energy for refresh commands per rank (pJ)
system.mem_ctrls0.actBackEnergy::0        25321530375                       # Energy for active background per rank (pJ)
system.mem_ctrls0.actBackEnergy::1        24828025230                       # Energy for active background per rank (pJ)
system.mem_ctrls0.preBackEnergy::0        14723142750                       # Energy for precharge background per rank (pJ)
system.mem_ctrls0.preBackEnergy::1        15156042000                       # Energy for precharge background per rank (pJ)
system.mem_ctrls0.totalEnergy::0          45654950955                       # Total energy per rank (pJ)
system.mem_ctrls0.totalEnergy::1          45588164250                       # Total energy per rank (pJ)
system.mem_ctrls0.averagePower::0          741.653230                       # Core power per rank (mW)
system.mem_ctrls0.averagePower::1          740.568297                       # Core power per rank (mW)
system.mem_ctrls1.bytes_read::ruby.dir_cntrl1     12390592                       # Number of bytes read from this memory
system.mem_ctrls1.bytes_read::total          12390592                       # Number of bytes read from this memory
system.mem_ctrls1.bytes_written::ruby.dir_cntrl1      7841216                       # Number of bytes written to this memory
system.mem_ctrls1.bytes_written::total        7841216                       # Number of bytes written to this memory
system.mem_ctrls1.num_reads::ruby.dir_cntrl1       193603                       # Number of read requests responded to by this memory
system.mem_ctrls1.num_reads::total             193603                       # Number of read requests responded to by this memory
system.mem_ctrls1.num_writes::ruby.dir_cntrl1       122519                       # Number of write requests responded to by this memory
system.mem_ctrls1.num_writes::total            122519                       # Number of write requests responded to by this memory
system.mem_ctrls1.bw_read::ruby.dir_cntrl1    201261510                       # Total read bandwidth from this memory (bytes/s)
system.mem_ctrls1.bw_read::total            201261510                       # Total read bandwidth from this memory (bytes/s)
system.mem_ctrls1.bw_write::ruby.dir_cntrl1    127365583                       # Write bandwidth from this memory (bytes/s)
system.mem_ctrls1.bw_write::total           127365583                       # Write bandwidth from this memory (bytes/s)
system.mem_ctrls1.bw_total::ruby.dir_cntrl1    328627093                       # Total bandwidth to/from this memory (bytes/s)
system.mem_ctrls1.bw_total::total           328627093                       # Total bandwidth to/from this memory (bytes/s)
system.mem_ctrls1.readReqs                     193603                       # Number of read requests accepted
system.mem_ctrls1.writeReqs                    122519                       # Number of write requests accepted
system.mem_ctrls1.readBursts                   193603                       # Number of DRAM read bursts, including those serviced by the write queue
system.mem_ctrls1.writeBursts                  122519                       # Number of DRAM write bursts, including those merged in the write queue
system.mem_ctrls1.bytesReadDRAM              12388928                       # Total number of bytes read from DRAM
system.mem_ctrls1.bytesReadWrQ                   1664                       # Total number of bytes read from write queue
system.mem_ctrls1.bytesWritten                7841024                       # Total number of bytes written to DRAM
system.mem_ctrls1.bytesReadSys               12390592                       # Total read bytes from the system interface side
system.mem_ctrls1.bytesWrittenSys             7841216                       # Total written bytes from the system interface side
system.mem_ctrls1.servicedByWrQ                    26                       # Number of DRAM read bursts serviced by the write queue
system.mem_ctrls1.mergedWrBursts                    0                       # Number of DRAM write bursts merged with an existing one
system.mem_ctrls1.neitherReadNorWriteReqs            0                       # Number of requests that are neither read nor write
system.mem_ctrls1.perBankRdBursts::0            11840                       # Per bank write bursts
system.mem_ctrls1.perBankRdBursts::1            11946                       # Per bank write bursts
system.mem_ctrls1.perBankRdBursts::2            11885                       # Per bank write bursts
system.mem_ctrls1.perBankRdBursts::3            12224                       # Per bank write bursts
system.mem_ctrls1.perBankRdBursts::4            12049                       # Per bank write bursts
system.mem_ctrls1.perBankRdBursts::5            12103                       # Per bank write bursts
system.mem_ctrls1.perBankRdBursts::6            12306                       # Per bank write bursts
system.mem_ctrls1.perBankRdBursts::7            12416                       # Per bank write bursts
system.mem_ctrls1.perBankRdBursts::8            12179                       # Per bank write bursts
system.mem_ctrls1.perBankRdBursts::9            12555                       # Per bank write bursts
system.mem_ctrls1.perBankRdBursts::10           12164                       # Per bank write bursts
system.mem_ctrls1.perBankRdBursts::11           12477                       # Per bank write bursts
system.mem_ctrls1.perBankRdBursts::12           12007                       # Per bank write bursts
system.mem_ctrls1.perBankRdBursts::13           11800                       # Per bank write bursts
system.mem_ctrls1.perBankRdBursts::14           11911                       # Per bank write bursts
system.mem_ctrls1.perBankRdBursts::15           11715                       # Per bank write bursts
system.mem_ctrls1.perBankWrBursts::0             7601                       # Per bank write bursts
system.mem_ctrls1.perBankWrBursts::1             7470                       # Per bank write bursts
system.mem_ctrls1.perBankWrBursts::2             7607                       # Per bank write bursts
system.mem_ctrls1.perBankWrBursts::3             7670                       # Per bank write bursts
system.mem_ctrls1.perBankWrBursts::4             7608                       # Per bank write bursts
system.mem_ctrls1.perBankWrBursts::5             7682                       # Per bank write bursts
system.mem_ctrls1.perBankWrBursts::6             7772                       # Per bank write bursts
system.mem_ctrls1.perBankWrBursts::7             7842                       # Per bank write bursts
system.mem_ctrls1.perBankWrBursts::8             7709                       # Per bank write bursts
system.mem_ctrls1.perBankWrBursts::9             7884                       # Per bank write bursts
system.mem_ctrls1.perBankWrBursts::10            7691                       # Per bank write bursts
system.mem_ctrls1.perBankWrBursts::11            7708                       # Per bank write bursts
system.mem_ctrls1.perBankWrBursts::12            7587                       # Per bank write bursts
system.mem_ctrls1.perBankWrBursts::13            7615                       # Per bank write bursts
system.mem_ctrls1.perBankWrBursts::14            7640                       # Per bank write bursts
system.mem_ctrls1.perBankWrBursts::15            7430                       # Per bank write bursts
system.mem_ctrls1.numRdRetry                        0                       # Number of times read queue was full causing retry
system.mem_ctrls1.numWrRetry                      218                       # Number of times write queue was full causing retry
system.mem_ctrls1.totGap                  61563868500                       # Total gap between requests
system.mem_ctrls1.readPktSize::0                    0                       # Read request sizes (log2)
system.mem_ctrls1.readPktSize::1                    0                       # Read request sizes (log2)
system.mem_ctrls1.readPktSize::2                    0                       # Read request sizes (log2)
system.mem_ctrls1.readPktSize::3                    0                       # Read request sizes (log2)
system.mem_ctrls1.readPktSize::4                    0                       # Read request sizes (log2)
system.mem_ctrls1.readPktSize::5                    0                       # Read request sizes (log2)
system.mem_ctrls1.readPktSize::6               193603                       # Read request sizes (log2)
system.mem_ctrls1.writePktSize::0                   0                       # Write request sizes (log2)
system.mem_ctrls1.writePktSize::1                   0                       # Write request sizes (log2)
system.mem_ctrls1.writePktSize::2                   0                       # Write request sizes (log2)
system.mem_ctrls1.writePktSize::3                   0                       # Write request sizes (log2)
system.mem_ctrls1.writePktSize::4                   0                       # Write request sizes (log2)
system.mem_ctrls1.writePktSize::5                   0                       # Write request sizes (log2)
system.mem_ctrls1.writePktSize::6              122519                       # Write request sizes (log2)
system.mem_ctrls1.rdQLenPdf::0                 133057                       # What read queue length does an incoming req see
system.mem_ctrls1.rdQLenPdf::1                  27484                       # What read queue length does an incoming req see
system.mem_ctrls1.rdQLenPdf::2                  15310                       # What read queue length does an incoming req see
system.mem_ctrls1.rdQLenPdf::3                   8336                       # What read queue length does an incoming req see
system.mem_ctrls1.rdQLenPdf::4                   4246                       # What read queue length does an incoming req see
system.mem_ctrls1.rdQLenPdf::5                   2510                       # What read queue length does an incoming req see
system.mem_ctrls1.rdQLenPdf::6                   1445                       # What read queue length does an incoming req see
system.mem_ctrls1.rdQLenPdf::7                    881                       # What read queue length does an incoming req see
system.mem_ctrls1.rdQLenPdf::8                    234                       # What read queue length does an incoming req see
system.mem_ctrls1.rdQLenPdf::9                     55                       # What read queue length does an incoming req see
system.mem_ctrls1.rdQLenPdf::10                    15                       # What read queue length does an incoming req see
system.mem_ctrls1.rdQLenPdf::11                     2                       # What read queue length does an incoming req see
system.mem_ctrls1.rdQLenPdf::12                     1                       # What read queue length does an incoming req see
system.mem_ctrls1.rdQLenPdf::13                     1                       # What read queue length does an incoming req see
system.mem_ctrls1.rdQLenPdf::14                     0                       # What read queue length does an incoming req see
system.mem_ctrls1.rdQLenPdf::15                     0                       # What read queue length does an incoming req see
system.mem_ctrls1.rdQLenPdf::16                     0                       # What read queue length does an incoming req see
system.mem_ctrls1.rdQLenPdf::17                     0                       # What read queue length does an incoming req see
system.mem_ctrls1.rdQLenPdf::18                     0                       # What read queue length does an incoming req see
system.mem_ctrls1.rdQLenPdf::19                     0                       # What read queue length does an incoming req see
system.mem_ctrls1.rdQLenPdf::20                     0                       # What read queue length does an incoming req see
system.mem_ctrls1.rdQLenPdf::21                     0                       # What read queue length does an incoming req see
system.mem_ctrls1.rdQLenPdf::22                     0                       # What read queue length does an incoming req see
system.mem_ctrls1.rdQLenPdf::23                     0                       # What read queue length does an incoming req see
system.mem_ctrls1.rdQLenPdf::24                     0                       # What read queue length does an incoming req see
system.mem_ctrls1.rdQLenPdf::25                     0                       # What read queue length does an incoming req see
system.mem_ctrls1.rdQLenPdf::26                     0                       # What read queue length does an incoming req see
system.mem_ctrls1.rdQLenPdf::27                     0                       # What read queue length does an incoming req see
system.mem_ctrls1.rdQLenPdf::28                     0                       # What read queue length does an incoming req see
system.mem_ctrls1.rdQLenPdf::29                     0                       # What read queue length does an incoming req see
system.mem_ctrls1.rdQLenPdf::30                     0                       # What read queue length does an incoming req see
system.mem_ctrls1.rdQLenPdf::31                     0                       # What read queue length does an incoming req see
system.mem_ctrls1.wrQLenPdf::0                  23003                       # What write queue length does an incoming req see
system.mem_ctrls1.wrQLenPdf::1                  24334                       # What write queue length does an incoming req see
system.mem_ctrls1.wrQLenPdf::2                  24330                       # What write queue length does an incoming req see
system.mem_ctrls1.wrQLenPdf::3                  24344                       # What write queue length does an incoming req see
system.mem_ctrls1.wrQLenPdf::4                  24197                       # What write queue length does an incoming req see
system.mem_ctrls1.wrQLenPdf::5                   1143                       # What write queue length does an incoming req see
system.mem_ctrls1.wrQLenPdf::6                    635                       # What write queue length does an incoming req see
system.mem_ctrls1.wrQLenPdf::7                    533                       # What write queue length does an incoming req see
system.mem_ctrls1.bytesPerActivate::samples        63507                       # Bytes accessed per row activation
system.mem_ctrls1.bytesPerActivate::mean   318.535720                       # Bytes accessed per row activation
system.mem_ctrls1.bytesPerActivate::gmean   220.057148                       # Bytes accessed per row activation
system.mem_ctrls1.bytesPerActivate::stdev   282.946015                       # Bytes accessed per row activation
system.mem_ctrls1.bytesPerActivate::0-127        15050     23.70%     23.70% # Bytes accessed per row activation
system.mem_ctrls1.bytesPerActivate::128-255        13002     20.47%     44.17% # Bytes accessed per row activation
system.mem_ctrls1.bytesPerActivate::256-383        20933     32.96%     77.13% # Bytes accessed per row activation
system.mem_ctrls1.bytesPerActivate::384-511         3597      5.66%     82.80% # Bytes accessed per row activation
system.mem_ctrls1.bytesPerActivate::512-639         1976      3.11%     85.91% # Bytes accessed per row activation
system.mem_ctrls1.bytesPerActivate::640-767         1262      1.99%     87.90% # Bytes accessed per row activation
system.mem_ctrls1.bytesPerActivate::768-895          978      1.54%     89.44% # Bytes accessed per row activation
system.mem_ctrls1.bytesPerActivate::896-1023          952      1.50%     90.93% # Bytes accessed per row activation
system.mem_ctrls1.bytesPerActivate::1024-1151         5757      9.07%    100.00% # Bytes accessed per row activation
system.mem_ctrls1.bytesPerActivate::total        63507                       # Bytes accessed per row activation
system.mem_ctrls1.rdPerTurnAround::samples        23002                       # Reads before turning the bus around for writes
system.mem_ctrls1.rdPerTurnAround::mean      8.415355                       # Reads before turning the bus around for writes
system.mem_ctrls1.rdPerTurnAround::stdev    23.348891                       # Reads before turning the bus around for writes
system.mem_ctrls1.rdPerTurnAround::0-127        22989     99.94%     99.94% # Reads before turning the bus around for writes
system.mem_ctrls1.rdPerTurnAround::128-255           11      0.05%     99.99% # Reads before turning the bus around for writes
system.mem_ctrls1.rdPerTurnAround::1152-1279            1      0.00%    100.00% # Reads before turning the bus around for writes
system.mem_ctrls1.rdPerTurnAround::2816-2943            1      0.00%    100.00% # Reads before turning the bus around for writes
system.mem_ctrls1.rdPerTurnAround::total        23002                       # Reads before turning the bus around for writes
system.mem_ctrls1.wrPerTurnAround::samples        23002                       # Writes before turning the bus around for reads
system.mem_ctrls1.wrPerTurnAround::mean      5.326319                       # Writes before turning the bus around for reads
system.mem_ctrls1.wrPerTurnAround::gmean     5.259336                       # Writes before turning the bus around for reads
system.mem_ctrls1.wrPerTurnAround::stdev     1.012178                       # Writes before turning the bus around for reads
system.mem_ctrls1.wrPerTurnAround::4-7          21840     94.95%     94.95% # Writes before turning the bus around for reads
system.mem_ctrls1.wrPerTurnAround::8-11          1076      4.68%     99.63% # Writes before turning the bus around for reads
system.mem_ctrls1.wrPerTurnAround::12-15           85      0.37%    100.00% # Writes before turning the bus around for reads
system.mem_ctrls1.wrPerTurnAround::16-19            1      0.00%    100.00% # Writes before turning the bus around for reads
system.mem_ctrls1.wrPerTurnAround::total        23002                       # Writes before turning the bus around for reads
system.mem_ctrls1.totQLat                  3340193501                       # Total ticks spent queuing
system.mem_ctrls1.totMemAccLat             6969762251                       # Total ticks spent from burst creation until serviced by the DRAM
system.mem_ctrls1.totBusLat                 967885000                       # Total ticks spent in databus transfers
system.mem_ctrls1.avgQLat                    17255.12                       # Average queueing delay per DRAM burst
system.mem_ctrls1.avgBusLat                   5000.00                       # Average bus latency per DRAM burst
system.mem_ctrls1.avgMemAccLat               36005.12                       # Average memory access latency per DRAM burst
system.mem_ctrls1.avgRdBW                      201.23                       # Average DRAM read bandwidth in MiByte/s
system.mem_ctrls1.avgWrBW                      127.36                       # Average achieved write bandwidth in MiByte/s
system.mem_ctrls1.avgRdBWSys                   201.26                       # Average system read bandwidth in MiByte/s
system.mem_ctrls1.avgWrBWSys                   127.37                       # Average system write bandwidth in MiByte/s
system.mem_ctrls1.peakBW                     12800.00                       # Theoretical peak bandwidth in MiByte/s
system.mem_ctrls1.busUtil                        2.57                       # Data bus utilization in percentage
system.mem_ctrls1.busUtilRead                    1.57                       # Data bus utilization in percentage for reads
system.mem_ctrls1.busUtilWrite                   1.00                       # Data bus utilization in percentage for writes
system.mem_ctrls1.avgRdQLen                      1.10                       # Average read queue length when enqueuing
system.mem_ctrls1.avgWrQLen                      2.95                       # Average write queue length when enqueuing
system.mem_ctrls1.readRowHits                  159418                       # Number of row buffer hits during reads
system.mem_ctrls1.writeRowHits                  93161                       # Number of row buffer hits during writes
system.mem_ctrls1.readRowHitRate                82.35                       # Row buffer hit rate for reads
system.mem_ctrls1.writeRowHitRate               76.04                       # Row buffer hit rate for writes
system.mem_ctrls1.avgGap                    194747.18                       # Average gap between requests
system.mem_ctrls1.pageHitRate                   79.91                       # Row buffer hit rate, read and write combined
system.mem_ctrls1.memoryStateTime::IDLE   11972051750                       # Time in different power states
system.mem_ctrls1.memoryStateTime::REF     2055560000                       # Time in different power states
system.mem_ctrls1.memoryStateTime::PRE_PDN            0                       # Time in different power states
system.mem_ctrls1.memoryStateTime::ACT    47531490250                       # Time in different power states
system.mem_ctrls1.memoryStateTime::ACT_PDN            0                       # Time in different power states
system.mem_ctrls1.actEnergy::0              243537840                       # Energy for activate commands per rank (pJ)
system.mem_ctrls1.actEnergy::1              236439000                       # Energy for activate commands per rank (pJ)
system.mem_ctrls1.preEnergy::0              132882750                       # Energy for precharge commands per rank (pJ)
system.mem_ctrls1.preEnergy::1              129009375                       # Energy for precharge commands per rank (pJ)
system.mem_ctrls1.readEnergy::0             754759200                       # Energy for read commands per rank (pJ)
system.mem_ctrls1.readEnergy::1             754642200                       # Energy for read commands per rank (pJ)
system.mem_ctrls1.writeEnergy::0            396893520                       # Energy for write commands per rank (pJ)
system.mem_ctrls1.writeEnergy::1            396848160                       # Energy for write commands per rank (pJ)
system.mem_ctrls1.refreshEnergy::0         4020675360                       # Energy for refresh commands per rank (pJ)
system.mem_ctrls1.refreshEnergy::1         4020675360                       # Energy for refresh commands per rank (pJ)
system.mem_ctrls1.actBackEnergy::0        25077268845                       # Energy for active background per rank (pJ)
system.mem_ctrls1.actBackEnergy::1        24569329590                       # Energy for active background per rank (pJ)
system.mem_ctrls1.preBackEnergy::0        14937407250                       # Energy for precharge background per rank (pJ)
system.mem_ctrls1.preBackEnergy::1        15382968000                       # Energy for precharge background per rank (pJ)
system.mem_ctrls1.totalEnergy::0          45563424765                       # Total energy per rank (pJ)
system.mem_ctrls1.totalEnergy::1          45489911685                       # Total energy per rank (pJ)
system.mem_ctrls1.averagePower::0          740.166410                       # Core power per rank (mW)
system.mem_ctrls1.averagePower::1          738.972208                       # Core power per rank (mW)
system.mem_ctrls2.bytes_read::ruby.dir_cntrl2     12391424                       # Number of bytes read from this memory
system.mem_ctrls2.bytes_read::total          12391424                       # Number of bytes read from this memory
system.mem_ctrls2.bytes_written::ruby.dir_cntrl2      7841472                       # Number of bytes written to this memory
system.mem_ctrls2.bytes_written::total        7841472                       # Number of bytes written to this memory
system.mem_ctrls2.num_reads::ruby.dir_cntrl2       193616                       # Number of read requests responded to by this memory
system.mem_ctrls2.num_reads::total             193616                       # Number of read requests responded to by this memory
system.mem_ctrls2.num_writes::ruby.dir_cntrl2       122523                       # Number of write requests responded to by this memory
system.mem_ctrls2.num_writes::total            122523                       # Number of write requests responded to by this memory
system.mem_ctrls2.bw_read::ruby.dir_cntrl2    201275024                       # Total read bandwidth from this memory (bytes/s)
system.mem_ctrls2.bw_read::total            201275024                       # Total read bandwidth from this memory (bytes/s)
system.mem_ctrls2.bw_write::ruby.dir_cntrl2    127369741                       # Write bandwidth from this memory (bytes/s)
system.mem_ctrls2.bw_write::total           127369741                       # Write bandwidth from this memory (bytes/s)
system.mem_ctrls2.bw_total::ruby.dir_cntrl2    328644765                       # Total bandwidth to/from this memory (bytes/s)
system.mem_ctrls2.bw_total::total           328644765                       # Total bandwidth to/from this memory (bytes/s)
system.mem_ctrls2.readReqs                     193616                       # Number of read requests accepted
system.mem_ctrls2.writeReqs                    122523                       # Number of write requests accepted
system.mem_ctrls2.readBursts                   193616                       # Number of DRAM read bursts, including those serviced by the write queue
system.mem_ctrls2.writeBursts                  122523                       # Number of DRAM write bursts, including those merged in the write queue
system.mem_ctrls2.bytesReadDRAM              12390400                       # Total number of bytes read from DRAM
system.mem_ctrls2.bytesReadWrQ                   1024                       # Total number of bytes read from write queue
system.mem_ctrls2.bytesWritten                7841280                       # Total number of bytes written to DRAM
system.mem_ctrls2.bytesReadSys               12391424                       # Total read bytes from the system interface side
system.mem_ctrls2.bytesWrittenSys             7841472                       # Total written bytes from the system interface side
system.mem_ctrls2.servicedByWrQ                    16                       # Number of DRAM read bursts serviced by the write queue
system.mem_ctrls2.mergedWrBursts                    0                       # Number of DRAM write bursts merged with an existing one
system.mem_ctrls2.neitherReadNorWriteReqs            0                       # Number of requests that are neither read nor write
system.mem_ctrls2.perBankRdBursts::0            11836                       # Per bank write bursts
system.mem_ctrls2.perBankRdBursts::1            11980                       # Per bank write bursts
system.mem_ctrls2.perBankRdBursts::2            11905                       # Per bank write bursts
system.mem_ctrls2.perBankRdBursts::3            12265                       # Per bank write bursts
system.mem_ctrls2.perBankRdBursts::4            12055                       # Per bank write bursts
system.mem_ctrls2.perBankRdBursts::5            12087                       # Per bank write bursts
system.mem_ctrls2.perBankRdBursts::6            12281                       # Per bank write bursts
system.mem_ctrls2.perBankRdBursts::7            12415                       # Per bank write bursts
system.mem_ctrls2.perBankRdBursts::8            12168                       # Per bank write bursts
system.mem_ctrls2.perBankRdBursts::9            12541                       # Per bank write bursts
system.mem_ctrls2.perBankRdBursts::10           12171                       # Per bank write bursts
system.mem_ctrls2.perBankRdBursts::11           12516                       # Per bank write bursts
system.mem_ctrls2.perBankRdBursts::12           12004                       # Per bank write bursts
system.mem_ctrls2.perBankRdBursts::13           11765                       # Per bank write bursts
system.mem_ctrls2.perBankRdBursts::14           11895                       # Per bank write bursts
system.mem_ctrls2.perBankRdBursts::15           11716                       # Per bank write bursts
system.mem_ctrls2.perBankWrBursts::0             7594                       # Per bank write bursts
system.mem_ctrls2.perBankWrBursts::1             7469                       # Per bank write bursts
system.mem_ctrls2.perBankWrBursts::2             7607                       # Per bank write bursts
system.mem_ctrls2.perBankWrBursts::3             7679                       # Per bank write bursts
system.mem_ctrls2.perBankWrBursts::4             7606                       # Per bank write bursts
system.mem_ctrls2.perBankWrBursts::5             7667                       # Per bank write bursts
system.mem_ctrls2.perBankWrBursts::6             7765                       # Per bank write bursts
system.mem_ctrls2.perBankWrBursts::7             7850                       # Per bank write bursts
system.mem_ctrls2.perBankWrBursts::8             7711                       # Per bank write bursts
system.mem_ctrls2.perBankWrBursts::9             7886                       # Per bank write bursts
system.mem_ctrls2.perBankWrBursts::10            7690                       # Per bank write bursts
system.mem_ctrls2.perBankWrBursts::11            7718                       # Per bank write bursts
system.mem_ctrls2.perBankWrBursts::12            7595                       # Per bank write bursts
system.mem_ctrls2.perBankWrBursts::13            7605                       # Per bank write bursts
system.mem_ctrls2.perBankWrBursts::14            7647                       # Per bank write bursts
system.mem_ctrls2.perBankWrBursts::15            7431                       # Per bank write bursts
system.mem_ctrls2.numRdRetry                        0                       # Number of times read queue was full causing retry
system.mem_ctrls2.numWrRetry                      210                       # Number of times write queue was full causing retry
system.mem_ctrls2.totGap                  61564496500                       # Total gap between requests
system.mem_ctrls2.readPktSize::0                    0                       # Read request sizes (log2)
system.mem_ctrls2.readPktSize::1                    0                       # Read request sizes (log2)
system.mem_ctrls2.readPktSize::2                    0                       # Read request sizes (log2)
system.mem_ctrls2.readPktSize::3                    0                       # Read request sizes (log2)
system.mem_ctrls2.readPktSize::4                    0                       # Read request sizes (log2)
system.mem_ctrls2.readPktSize::5                    0                       # Read request sizes (log2)
system.mem_ctrls2.readPktSize::6               193616                       # Read request sizes (log2)
system.mem_ctrls2.writePktSize::0                   0                       # Write request sizes (log2)
system.mem_ctrls2.writePktSize::1                   0                       # Write request sizes (log2)
system.mem_ctrls2.writePktSize::2                   0                       # Write request sizes (log2)
system.mem_ctrls2.writePktSize::3                   0                       # Write request sizes (log2)
system.mem_ctrls2.writePktSize::4                   0                       # Write request sizes (log2)
system.mem_ctrls2.writePktSize::5                   0                       # Write request sizes (log2)
system.mem_ctrls2.writePktSize::6              122523                       # Write request sizes (log2)
system.mem_ctrls2.rdQLenPdf::0                 133245                       # What read queue length does an incoming req see
system.mem_ctrls2.rdQLenPdf::1                  28608                       # What read queue length does an incoming req see
system.mem_ctrls2.rdQLenPdf::2                  14326                       # What read queue length does an incoming req see
system.mem_ctrls2.rdQLenPdf::3                   7931                       # What read queue length does an incoming req see
system.mem_ctrls2.rdQLenPdf::4                   4295                       # What read queue length does an incoming req see
system.mem_ctrls2.rdQLenPdf::5                   2479                       # What read queue length does an incoming req see
system.mem_ctrls2.rdQLenPdf::6                   1508                       # What read queue length does an incoming req see
system.mem_ctrls2.rdQLenPdf::7                    865                       # What read queue length does an incoming req see
system.mem_ctrls2.rdQLenPdf::8                    250                       # What read queue length does an incoming req see
system.mem_ctrls2.rdQLenPdf::9                     68                       # What read queue length does an incoming req see
system.mem_ctrls2.rdQLenPdf::10                    20                       # What read queue length does an incoming req see
system.mem_ctrls2.rdQLenPdf::11                     5                       # What read queue length does an incoming req see
system.mem_ctrls2.rdQLenPdf::12                     0                       # What read queue length does an incoming req see
system.mem_ctrls2.rdQLenPdf::13                     0                       # What read queue length does an incoming req see
system.mem_ctrls2.rdQLenPdf::14                     0                       # What read queue length does an incoming req see
system.mem_ctrls2.rdQLenPdf::15                     0                       # What read queue length does an incoming req see
system.mem_ctrls2.rdQLenPdf::16                     0                       # What read queue length does an incoming req see
system.mem_ctrls2.rdQLenPdf::17                     0                       # What read queue length does an incoming req see
system.mem_ctrls2.rdQLenPdf::18                     0                       # What read queue length does an incoming req see
system.mem_ctrls2.rdQLenPdf::19                     0                       # What read queue length does an incoming req see
system.mem_ctrls2.rdQLenPdf::20                     0                       # What read queue length does an incoming req see
system.mem_ctrls2.rdQLenPdf::21                     0                       # What read queue length does an incoming req see
system.mem_ctrls2.rdQLenPdf::22                     0                       # What read queue length does an incoming req see
system.mem_ctrls2.rdQLenPdf::23                     0                       # What read queue length does an incoming req see
system.mem_ctrls2.rdQLenPdf::24                     0                       # What read queue length does an incoming req see
system.mem_ctrls2.rdQLenPdf::25                     0                       # What read queue length does an incoming req see
system.mem_ctrls2.rdQLenPdf::26                     0                       # What read queue length does an incoming req see
system.mem_ctrls2.rdQLenPdf::27                     0                       # What read queue length does an incoming req see
system.mem_ctrls2.rdQLenPdf::28                     0                       # What read queue length does an incoming req see
system.mem_ctrls2.rdQLenPdf::29                     0                       # What read queue length does an incoming req see
system.mem_ctrls2.rdQLenPdf::30                     0                       # What read queue length does an incoming req see
system.mem_ctrls2.rdQLenPdf::31                     0                       # What read queue length does an incoming req see
system.mem_ctrls2.wrQLenPdf::0                  23022                       # What write queue length does an incoming req see
system.mem_ctrls2.wrQLenPdf::1                  24464                       # What write queue length does an incoming req see
system.mem_ctrls2.wrQLenPdf::2                  24376                       # What write queue length does an incoming req see
system.mem_ctrls2.wrQLenPdf::3                  24242                       # What write queue length does an incoming req see
system.mem_ctrls2.wrQLenPdf::4                  24262                       # What write queue length does an incoming req see
system.mem_ctrls2.wrQLenPdf::5                   1063                       # What write queue length does an incoming req see
system.mem_ctrls2.wrQLenPdf::6                    597                       # What write queue length does an incoming req see
system.mem_ctrls2.wrQLenPdf::7                    497                       # What write queue length does an incoming req see
system.mem_ctrls2.bytesPerActivate::samples        63260                       # Bytes accessed per row activation
system.mem_ctrls2.bytesPerActivate::mean   319.809801                       # Bytes accessed per row activation
system.mem_ctrls2.bytesPerActivate::gmean   221.436305                       # Bytes accessed per row activation
system.mem_ctrls2.bytesPerActivate::stdev   283.023288                       # Bytes accessed per row activation
system.mem_ctrls2.bytesPerActivate::0-127        14786     23.37%     23.37% # Bytes accessed per row activation
system.mem_ctrls2.bytesPerActivate::128-255        12820     20.27%     43.64% # Bytes accessed per row activation
system.mem_ctrls2.bytesPerActivate::256-383        21130     33.40%     77.04% # Bytes accessed per row activation
system.mem_ctrls2.bytesPerActivate::384-511         3675      5.81%     82.85% # Bytes accessed per row activation
system.mem_ctrls2.bytesPerActivate::512-639         1921      3.04%     85.89% # Bytes accessed per row activation
system.mem_ctrls2.bytesPerActivate::640-767         1230      1.94%     87.83% # Bytes accessed per row activation
system.mem_ctrls2.bytesPerActivate::768-895          986      1.56%     89.39% # Bytes accessed per row activation
system.mem_ctrls2.bytesPerActivate::896-1023          920      1.45%     90.84% # Bytes accessed per row activation
system.mem_ctrls2.bytesPerActivate::1024-1151         5792      9.16%    100.00% # Bytes accessed per row activation
system.mem_ctrls2.bytesPerActivate::total        63260                       # Bytes accessed per row activation
system.mem_ctrls2.rdPerTurnAround::samples        23022                       # Reads before turning the bus around for writes
system.mem_ctrls2.rdPerTurnAround::mean      8.409174                       # Reads before turning the bus around for writes
system.mem_ctrls2.rdPerTurnAround::stdev    23.410001                       # Reads before turning the bus around for writes
system.mem_ctrls2.rdPerTurnAround::0-127        23009     99.94%     99.94% # Reads before turning the bus around for writes
system.mem_ctrls2.rdPerTurnAround::128-255           11      0.05%     99.99% # Reads before turning the bus around for writes
system.mem_ctrls2.rdPerTurnAround::1152-1279            1      0.00%    100.00% # Reads before turning the bus around for writes
system.mem_ctrls2.rdPerTurnAround::2816-2943            1      0.00%    100.00% # Reads before turning the bus around for writes
system.mem_ctrls2.rdPerTurnAround::total        23022                       # Reads before turning the bus around for writes
system.mem_ctrls2.wrPerTurnAround::samples        23022                       # Writes before turning the bus around for reads
system.mem_ctrls2.wrPerTurnAround::mean      5.321866                       # Writes before turning the bus around for reads
system.mem_ctrls2.wrPerTurnAround::gmean     5.255678                       # Writes before turning the bus around for reads
system.mem_ctrls2.wrPerTurnAround::stdev     1.010758                       # Writes before turning the bus around for reads
system.mem_ctrls2.wrPerTurnAround::4-7          21956     95.37%     95.37% # Writes before turning the bus around for reads
system.mem_ctrls2.wrPerTurnAround::8-11           970      4.21%     99.58% # Writes before turning the bus around for reads
system.mem_ctrls2.wrPerTurnAround::12-15           95      0.41%    100.00% # Writes before turning the bus around for reads
system.mem_ctrls2.wrPerTurnAround::16-19            1      0.00%    100.00% # Writes before turning the bus around for reads
system.mem_ctrls2.wrPerTurnAround::total        23022                       # Writes before turning the bus around for reads
system.mem_ctrls2.totQLat                  3358567741                       # Total ticks spent queuing
system.mem_ctrls2.totMemAccLat             6988567741                       # Total ticks spent from burst creation until serviced by the DRAM
system.mem_ctrls2.totBusLat                 968000000                       # Total ticks spent in databus transfers
system.mem_ctrls2.avgQLat                    17347.97                       # Average queueing delay per DRAM burst
system.mem_ctrls2.avgBusLat                   5000.00                       # Average bus latency per DRAM burst
system.mem_ctrls2.avgMemAccLat               36097.97                       # Average memory access latency per DRAM burst
system.mem_ctrls2.avgRdBW                      201.26                       # Average DRAM read bandwidth in MiByte/s
system.mem_ctrls2.avgWrBW                      127.37                       # Average achieved write bandwidth in MiByte/s
system.mem_ctrls2.avgRdBWSys                   201.28                       # Average system read bandwidth in MiByte/s
system.mem_ctrls2.avgWrBWSys                   127.37                       # Average system write bandwidth in MiByte/s
system.mem_ctrls2.peakBW                     12800.00                       # Theoretical peak bandwidth in MiByte/s
system.mem_ctrls2.busUtil                        2.57                       # Data bus utilization in percentage
system.mem_ctrls2.busUtilRead                    1.57                       # Data bus utilization in percentage for reads
system.mem_ctrls2.busUtilWrite                   1.00                       # Data bus utilization in percentage for writes
system.mem_ctrls2.avgRdQLen                      1.09                       # Average read queue length when enqueuing
system.mem_ctrls2.avgWrQLen                      2.91                       # Average write queue length when enqueuing
system.mem_ctrls2.readRowHits                  159337                       # Number of row buffer hits during reads
system.mem_ctrls2.writeRowHits                  93517                       # Number of row buffer hits during writes
system.mem_ctrls2.readRowHitRate                82.30                       # Row buffer hit rate for reads
system.mem_ctrls2.writeRowHitRate               76.33                       # Row buffer hit rate for writes
system.mem_ctrls2.avgGap                    194738.70                       # Average gap between requests
system.mem_ctrls2.pageHitRate                   79.99                       # Row buffer hit rate, read and write combined
system.mem_ctrls2.memoryStateTime::IDLE   11951523500                       # Time in different power states
system.mem_ctrls2.memoryStateTime::REF     2055560000                       # Time in different power states
system.mem_ctrls2.memoryStateTime::PRE_PDN            0                       # Time in different power states
system.mem_ctrls2.memoryStateTime::ACT    47552095000                       # Time in different power states
system.mem_ctrls2.memoryStateTime::ACT_PDN            0                       # Time in different power states
system.mem_ctrls2.actEnergy::0              241731000                       # Energy for activate commands per rank (pJ)
system.mem_ctrls2.actEnergy::1              236378520                       # Energy for activate commands per rank (pJ)
system.mem_ctrls2.preEnergy::0              131896875                       # Energy for precharge commands per rank (pJ)
system.mem_ctrls2.preEnergy::1              128976375                       # Energy for precharge commands per rank (pJ)
system.mem_ctrls2.readEnergy::0             755180400                       # Energy for read commands per rank (pJ)
system.mem_ctrls2.readEnergy::1             754408200                       # Energy for read commands per rank (pJ)
system.mem_ctrls2.writeEnergy::0            396796320                       # Energy for write commands per rank (pJ)
system.mem_ctrls2.writeEnergy::1            396971280                       # Energy for write commands per rank (pJ)
system.mem_ctrls2.refreshEnergy::0         4020675360                       # Energy for refresh commands per rank (pJ)
system.mem_ctrls2.refreshEnergy::1         4020675360                       # Energy for refresh commands per rank (pJ)
system.mem_ctrls2.actBackEnergy::0        24822325800                       # Energy for active background per rank (pJ)
system.mem_ctrls2.actBackEnergy::1        24346756845                       # Energy for active background per rank (pJ)
system.mem_ctrls2.preBackEnergy::0        15161041500                       # Energy for precharge background per rank (pJ)
system.mem_ctrls2.preBackEnergy::1        15578207250                       # Energy for precharge background per rank (pJ)
system.mem_ctrls2.totalEnergy::0          45529647255                       # Total energy per rank (pJ)
system.mem_ctrls2.totalEnergy::1          45462373830                       # Total energy per rank (pJ)
system.mem_ctrls2.averagePower::0          739.617703                       # Core power per rank (mW)
system.mem_ctrls2.averagePower::1          738.524863                       # Core power per rank (mW)
system.mem_ctrls3.bytes_read::ruby.dir_cntrl3     12371392                       # Number of bytes read from this memory
system.mem_ctrls3.bytes_read::total          12371392                       # Number of bytes read from this memory
system.mem_ctrls3.bytes_written::ruby.dir_cntrl3      7839168                       # Number of bytes written to this memory
system.mem_ctrls3.bytes_written::total        7839168                       # Number of bytes written to this memory
system.mem_ctrls3.num_reads::ruby.dir_cntrl3       193303                       # Number of read requests responded to by this memory
system.mem_ctrls3.num_reads::total             193303                       # Number of read requests responded to by this memory
system.mem_ctrls3.num_writes::ruby.dir_cntrl3       122487                       # Number of write requests responded to by this memory
system.mem_ctrls3.num_writes::total            122487                       # Number of write requests responded to by this memory
system.mem_ctrls3.bw_read::ruby.dir_cntrl3    200949643                       # Total read bandwidth from this memory (bytes/s)
system.mem_ctrls3.bw_read::total            200949643                       # Total read bandwidth from this memory (bytes/s)
system.mem_ctrls3.bw_write::ruby.dir_cntrl3    127332317                       # Write bandwidth from this memory (bytes/s)
system.mem_ctrls3.bw_write::total           127332317                       # Write bandwidth from this memory (bytes/s)
system.mem_ctrls3.bw_total::ruby.dir_cntrl3    328281960                       # Total bandwidth to/from this memory (bytes/s)
system.mem_ctrls3.bw_total::total           328281960                       # Total bandwidth to/from this memory (bytes/s)
system.mem_ctrls3.readReqs                     193304                       # Number of read requests accepted
system.mem_ctrls3.writeReqs                    122487                       # Number of write requests accepted
system.mem_ctrls3.readBursts                   193304                       # Number of DRAM read bursts, including those serviced by the write queue
system.mem_ctrls3.writeBursts                  122487                       # Number of DRAM write bursts, including those merged in the write queue
system.mem_ctrls3.bytesReadDRAM              12370752                       # Total number of bytes read from DRAM
system.mem_ctrls3.bytesReadWrQ                    704                       # Total number of bytes read from write queue
system.mem_ctrls3.bytesWritten                7839040                       # Total number of bytes written to DRAM
system.mem_ctrls3.bytesReadSys               12371456                       # Total read bytes from the system interface side
system.mem_ctrls3.bytesWrittenSys             7839168                       # Total written bytes from the system interface side
system.mem_ctrls3.servicedByWrQ                    11                       # Number of DRAM read bursts serviced by the write queue
system.mem_ctrls3.mergedWrBursts                    0                       # Number of DRAM write bursts merged with an existing one
system.mem_ctrls3.neitherReadNorWriteReqs            0                       # Number of requests that are neither read nor write
system.mem_ctrls3.perBankRdBursts::0            11825                       # Per bank write bursts
system.mem_ctrls3.perBankRdBursts::1            11939                       # Per bank write bursts
system.mem_ctrls3.perBankRdBursts::2            11844                       # Per bank write bursts
system.mem_ctrls3.perBankRdBursts::3            12220                       # Per bank write bursts
system.mem_ctrls3.perBankRdBursts::4            12002                       # Per bank write bursts
system.mem_ctrls3.perBankRdBursts::5            12063                       # Per bank write bursts
system.mem_ctrls3.perBankRdBursts::6            12263                       # Per bank write bursts
system.mem_ctrls3.perBankRdBursts::7            12409                       # Per bank write bursts
system.mem_ctrls3.perBankRdBursts::8            12170                       # Per bank write bursts
system.mem_ctrls3.perBankRdBursts::9            12541                       # Per bank write bursts
system.mem_ctrls3.perBankRdBursts::10           12194                       # Per bank write bursts
system.mem_ctrls3.perBankRdBursts::11           12447                       # Per bank write bursts
system.mem_ctrls3.perBankRdBursts::12           11995                       # Per bank write bursts
system.mem_ctrls3.perBankRdBursts::13           11762                       # Per bank write bursts
system.mem_ctrls3.perBankRdBursts::14           11914                       # Per bank write bursts
system.mem_ctrls3.perBankRdBursts::15           11705                       # Per bank write bursts
system.mem_ctrls3.perBankWrBursts::0             7600                       # Per bank write bursts
system.mem_ctrls3.perBankWrBursts::1             7456                       # Per bank write bursts
system.mem_ctrls3.perBankWrBursts::2             7602                       # Per bank write bursts
system.mem_ctrls3.perBankWrBursts::3             7667                       # Per bank write bursts
system.mem_ctrls3.perBankWrBursts::4             7596                       # Per bank write bursts
system.mem_ctrls3.perBankWrBursts::5             7668                       # Per bank write bursts
system.mem_ctrls3.perBankWrBursts::6             7766                       # Per bank write bursts
system.mem_ctrls3.perBankWrBursts::7             7842                       # Per bank write bursts
system.mem_ctrls3.perBankWrBursts::8             7711                       # Per bank write bursts
system.mem_ctrls3.perBankWrBursts::9             7887                       # Per bank write bursts
system.mem_ctrls3.perBankWrBursts::10            7693                       # Per bank write bursts
system.mem_ctrls3.perBankWrBursts::11            7726                       # Per bank write bursts
system.mem_ctrls3.perBankWrBursts::12            7593                       # Per bank write bursts
system.mem_ctrls3.perBankWrBursts::13            7612                       # Per bank write bursts
system.mem_ctrls3.perBankWrBursts::14            7644                       # Per bank write bursts
system.mem_ctrls3.perBankWrBursts::15            7422                       # Per bank write bursts
system.mem_ctrls3.numRdRetry                        0                       # Number of times read queue was full causing retry
system.mem_ctrls3.numWrRetry                      201                       # Number of times write queue was full causing retry
system.mem_ctrls3.totGap                  61563887500                       # Total gap between requests
system.mem_ctrls3.readPktSize::0                    0                       # Read request sizes (log2)
system.mem_ctrls3.readPktSize::1                    0                       # Read request sizes (log2)
system.mem_ctrls3.readPktSize::2                    0                       # Read request sizes (log2)
system.mem_ctrls3.readPktSize::3                    0                       # Read request sizes (log2)
system.mem_ctrls3.readPktSize::4                    0                       # Read request sizes (log2)
system.mem_ctrls3.readPktSize::5                    0                       # Read request sizes (log2)
system.mem_ctrls3.readPktSize::6               193304                       # Read request sizes (log2)
system.mem_ctrls3.writePktSize::0                   0                       # Write request sizes (log2)
system.mem_ctrls3.writePktSize::1                   0                       # Write request sizes (log2)
system.mem_ctrls3.writePktSize::2                   0                       # Write request sizes (log2)
system.mem_ctrls3.writePktSize::3                   0                       # Write request sizes (log2)
system.mem_ctrls3.writePktSize::4                   0                       # Write request sizes (log2)
system.mem_ctrls3.writePktSize::5                   0                       # Write request sizes (log2)
system.mem_ctrls3.writePktSize::6              122487                       # Write request sizes (log2)
system.mem_ctrls3.rdQLenPdf::0                 132184                       # What read queue length does an incoming req see
system.mem_ctrls3.rdQLenPdf::1                  28235                       # What read queue length does an incoming req see
system.mem_ctrls3.rdQLenPdf::2                  15469                       # What read queue length does an incoming req see
system.mem_ctrls3.rdQLenPdf::3                   7738                       # What read queue length does an incoming req see
system.mem_ctrls3.rdQLenPdf::4                   4566                       # What read queue length does an incoming req see
system.mem_ctrls3.rdQLenPdf::5                   2418                       # What read queue length does an incoming req see
system.mem_ctrls3.rdQLenPdf::6                   1538                       # What read queue length does an incoming req see
system.mem_ctrls3.rdQLenPdf::7                    849                       # What read queue length does an incoming req see
system.mem_ctrls3.rdQLenPdf::8                    221                       # What read queue length does an incoming req see
system.mem_ctrls3.rdQLenPdf::9                     54                       # What read queue length does an incoming req see
system.mem_ctrls3.rdQLenPdf::10                    13                       # What read queue length does an incoming req see
system.mem_ctrls3.rdQLenPdf::11                     5                       # What read queue length does an incoming req see
system.mem_ctrls3.rdQLenPdf::12                     2                       # What read queue length does an incoming req see
system.mem_ctrls3.rdQLenPdf::13                     1                       # What read queue length does an incoming req see
system.mem_ctrls3.rdQLenPdf::14                     0                       # What read queue length does an incoming req see
system.mem_ctrls3.rdQLenPdf::15                     0                       # What read queue length does an incoming req see
system.mem_ctrls3.rdQLenPdf::16                     0                       # What read queue length does an incoming req see
system.mem_ctrls3.rdQLenPdf::17                     0                       # What read queue length does an incoming req see
system.mem_ctrls3.rdQLenPdf::18                     0                       # What read queue length does an incoming req see
system.mem_ctrls3.rdQLenPdf::19                     0                       # What read queue length does an incoming req see
system.mem_ctrls3.rdQLenPdf::20                     0                       # What read queue length does an incoming req see
system.mem_ctrls3.rdQLenPdf::21                     0                       # What read queue length does an incoming req see
system.mem_ctrls3.rdQLenPdf::22                     0                       # What read queue length does an incoming req see
[...]
system.ruby.L2Cache_Controller.I_I.L1_GET_INSTR::total            1                      
system.ruby.L2Cache_Controller.I_I.Ack_all |         447      3.29%      3.29% |         421      3.10%      6.39% |         417      3.07%      9.46% |         404      2.97%     12.43% |         412      3.03%     15.46% |         406      2.99%     18.45% |         419      3.08%     21.54% |         417      3.07%     24.61% |         409      3.01%     27.62% |         420      3.09%     30.71% |         448      3.30%     34.01% |         439      3.23%     37.24% |         453      3.33%     40.57% |         434      3.19%     43.77% |         449      3.30%     47.07% |         441      3.25%     50.32% |         451      3.32%     53.64% |         444      3.27%     56.90% |         436      3.21%     60.11% |         405      2.98%     63.09% |         388      2.86%     65.95% |         410      3.02%     68.97% |         409      3.01%     71.98% |         403      2.97%     74.94% |         431      3.17%     78.12% |         454      3.34%     81.46% |         441      3.25%     84.70% |         404      2.97%     87.68% |         417      3.07%     90.75% |         426      3.14%     93.88% |         426      3.14%     97.02% |         405      2.98%    100.00%
system.ruby.L2Cache_Controller.I_I.Ack_all::total        13586                      
system.ruby.L2Cache_Controller.S_I.Ack   |           1      1.23%      1.23% |           2      2.47%      3.70% |           1      1.23%      4.94% |           3      3.70%      8.64% |           3      3.70%     12.35% |           3      3.70%     16.05% |           4      4.94%     20.99% |           3      3.70%     24.69% |           5      6.17%     30.86% |           3      3.70%     34.57% |           2      2.47%     37.04% |           2      2.47%     39.51% |           3      3.70%     43.21% |           3      3.70%     46.91% |           4      4.94%     51.85% |           3      3.70%     55.56% |           3      3.70%     59.26% |           1      1.23%     60.49% |           2      2.47%     62.96% |           0      0.00%     62.96% |           1      1.23%     64.20% |           0      0.00%     64.20% |           1      1.23%     65.43% |           2      2.47%     67.90% |           3      3.70%     71.60% |           5      6.17%     77.78% |           4      4.94%     82.72% |           5      6.17%     88.89% |           3      3.70%     92.59% |           2      2.47%     95.06% |           2      2.47%     97.53% |           2      2.47%    100.00%
system.ruby.L2Cache_Controller.S_I.Ack::total           81                      
system.ruby.L2Cache_Controller.S_I.Ack_all |           1      1.05%      1.05% |           3      3.16%      4.21% |           2      2.11%      6.32% |           4      4.21%     10.53% |           3      3.16%     13.68% |           5      5.26%     18.95% |           6      6.32%     25.26% |           3      3.16%     28.42% |           5      5.26%     33.68% |           3      3.16%     36.84% |           2      2.11%     38.95% |           2      2.11%     41.05% |           4      4.21%     45.26% |           3      3.16%     48.42% |           5      5.26%     53.68% |           3      3.16%     56.84% |           3      3.16%     60.00% |           1      1.05%     61.05% |           3      3.16%     64.21% |           0      0.00%     64.21% |           1      1.05%     65.26% |           0      0.00%     65.26% |           1      1.05%     66.32% |           2      2.11%     68.42% |           4      4.21%     72.63% |           5      5.26%     77.89% |           5      5.26%     83.16% |           6      6.32%     89.47% |           3      3.16%     92.63% |           2      2.11%     94.74% |           2      2.11%     96.84% |           3      3.16%    100.00%
system.ruby.L2Cache_Controller.S_I.Ack_all::total           95                      
system.ruby.L2Cache_Controller.ISS.Mem_Data |       12341      4.30%      4.30% |        8944      3.11%      7.41% |        8953      3.12%     10.53% |        8887      3.09%     13.62% |        8859      3.08%     16.71% |        8857      3.08%     19.79% |        8859      3.08%     22.88% |        8871      3.09%     25.97% |        8884      3.09%     29.06% |        8919      3.11%     32.17% |        8935      3.11%     35.28% |        8860      3.09%     38.36% |        8864      3.09%     41.45% |        8869      3.09%     44.54% |        8880      3.09%     47.63% |        8828      3.07%     50.70% |        8829      3.07%     53.78% |        8825      3.07%     56.85% |        8850      3.08%     59.93% |        8843      3.08%     63.01% |        8847      3.08%     66.09% |        8853      3.08%     69.18% |        8871      3.09%     72.26% |        8850      3.08%     75.35% |        8857      3.08%     78.43% |        8882      3.09%     81.52% |        8851      3.08%     84.61% |        8819      3.07%     87.68% |        8860      3.09%     90.76% |        8844      3.08%     93.84% |        8818      3.07%     96.91% |        8868      3.09%    100.00%
system.ruby.L2Cache_Controller.ISS.Mem_Data::total       287177                      
system.ruby.L2Cache_Controller.IS.Mem_Data |         447      3.29%      3.29% |         421      3.10%      6.38% |         420      3.09%      9.47% |         405      2.98%     12.45% |         411      3.02%     15.47% |         405      2.98%     18.45% |         416      3.06%     21.51% |         418      3.07%     24.58% |         409      3.01%     27.59% |         422      3.10%     30.69% |         446      3.28%     33.97% |         438      3.22%     37.19% |         455      3.35%     40.54% |         434      3.19%     43.73% |         450      3.31%     47.04% |         443      3.26%     50.29% |         453      3.33%     53.62% |         445      3.27%     56.90% |         438      3.22%     60.12% |         409      3.01%     63.12% |         389      2.86%     65.99% |         412      3.03%     69.01% |         408      3.00%     72.01% |         401      2.95%     74.96% |         428      3.15%     78.11% |         452      3.32%     81.43% |         441      3.24%     84.68% |         405      2.98%     87.65% |         419      3.08%     90.74% |         428      3.15%     93.88% |         428      3.15%     97.03% |         404      2.97%    100.00%
system.ruby.L2Cache_Controller.IS.Mem_Data::total        13600                      
system.ruby.L2Cache_Controller.IM.Mem_Data |       14971      3.14%      3.14% |       14887      3.12%      6.26% |       14893      3.12%      9.39% |       14894      3.12%     12.51% |       14885      3.12%     15.63% |       14893      3.12%     18.76% |       14896      3.12%     21.88% |       14889      3.12%     25.00% |       14897      3.12%     28.13% |       14902      3.13%     31.25% |       14883      3.12%     34.38% |       14903      3.13%     37.50% |       14894      3.12%     40.63% |       14895      3.12%     43.75% |       14891      3.12%     46.87% |       14887      3.12%     50.00% |       14906      3.13%     53.12% |       14899      3.13%     56.25% |       14897      3.12%     59.37% |       14902      3.13%     62.50% |       14916      3.13%     65.63% |       14926      3.13%     68.76% |       14888      3.12%     71.88% |       14899      3.13%     75.00% |       14910      3.13%     78.13% |       14902      3.13%     81.26% |       14905      3.13%     84.38% |       14896      3.12%     87.51% |       14889      3.12%     90.63% |       14887      3.12%     93.75% |       14899      3.13%     96.88% |       14884      3.12%    100.00%
system.ruby.L2Cache_Controller.IM.Mem_Data::total       476765                      
system.ruby.L2Cache_Controller.SS_MB.Exclusive_Unblock |           3      6.12%      6.12% |           6     12.24%     18.37% |           2      4.08%     22.45% |           3      6.12%     28.57% |           0      0.00%     28.57% |           0      0.00%     28.57% |           0      0.00%     28.57% |           0      0.00%     28.57% |           1      2.04%     30.61% |           0      0.00%     30.61% |           0      0.00%     30.61% |           1      2.04%     32.65% |           4      8.16%     40.82% |           0      0.00%     40.82% |           2      4.08%     44.90% |           0      0.00%     44.90% |           1      2.04%     46.94% |           2      4.08%     51.02% |          13     26.53%     77.55% |           3      6.12%     83.67% |           0      0.00%     83.67% |           0      0.00%     83.67% |           0      0.00%     83.67% |           0      0.00%     83.67% |           1      2.04%     85.71% |           0      0.00%     85.71% |           3      6.12%     91.84% |           4      8.16%    100.00% |           0      0.00%    100.00% |           0      0.00%    100.00% |           0      0.00%    100.00% |           0      0.00%    100.00%
system.ruby.L2Cache_Controller.SS_MB.Exclusive_Unblock::total           49                      
system.ruby.L2Cache_Controller.MT_MB.Exclusive_Unblock |       75827      7.22%      7.22% |       32862      3.13%     10.35% |       29489      2.81%     13.15% |       32384      3.08%     16.23% |       29781      2.83%     19.07% |       29679      2.82%     21.89% |       29084      2.77%     24.66% |       29696      2.83%     27.49% |       30393      2.89%     30.38% |       29989      2.85%     33.24% |       32545      3.10%     36.33% |       30867      2.94%     39.27% |       30511      2.90%     42.18% |       30302      2.88%     45.06% |       29593      2.82%     47.88% |       30191      2.87%     50.75% |       31316      2.98%     53.73% |       30307      2.88%     56.62% |       30885      2.94%     59.56% |       31616      3.01%     62.56% |       32133      3.06%     65.62% |       37024      3.52%     69.15% |       31251      2.97%     72.12% |       31249      2.97%     75.10% |       31239      2.97%     78.07% |       31238      2.97%     81.04% |       31160      2.97%     84.01% |       30873      2.94%     86.95% |       32686      3.11%     90.06% |       32155      3.06%     93.12% |       34131      3.25%     96.37% |       38160      3.63%    100.00%
system.ruby.L2Cache_Controller.MT_MB.Exclusive_Unblock::total      1050616                      
system.ruby.L2Cache_Controller.MT_IIB.WB_Data |           1      1.23%      1.23% |           2      2.47%      3.70% |           1      1.23%      4.94% |           3      3.70%      8.64% |           3      3.70%     12.35% |           3      3.70%     16.05% |           4      4.94%     20.99% |           3      3.70%     24.69% |           5      6.17%     30.86% |           3      3.70%     34.57% |           2      2.47%     37.04% |           2      2.47%     39.51% |           3      3.70%     43.21% |           3      3.70%     46.91% |           4      4.94%     51.85% |           3      3.70%     55.56% |           3      3.70%     59.26% |           1      1.23%     60.49% |           2      2.47%     62.96% |           0      0.00%     62.96% |           1      1.23%     64.20% |           0      0.00%     64.20% |           1      1.23%     65.43% |           2      2.47%     67.90% |           3      3.70%     71.60% |           5      6.17%     77.78% |           4      4.94%     82.72% |           5      6.17%     88.89% |           3      3.70%     92.59% |           2      2.47%     95.06% |           2      2.47%     97.53% |           2      2.47%    100.00%
system.ruby.L2Cache_Controller.MT_IIB.WB_Data::total           81                      
system.ruby.L2Cache_Controller.MT_IIB.WB_Data_clean |           0      0.00%      0.00% |           0      0.00%      0.00% |           0      0.00%      0.00% |           0      0.00%      0.00% |           0      0.00%      0.00% |           0      0.00%      0.00% |           0      0.00%      0.00% |           0      0.00%      0.00% |           0      0.00%      0.00% |           0      0.00%      0.00% |           0      0.00%      0.00% |           0      0.00%      0.00% |           0      0.00%      0.00% |           0      0.00%      0.00% |           0      0.00%      0.00% |           0      0.00%      0.00% |           0      0.00%      0.00% |           0      0.00%      0.00% |           0      0.00%      0.00% |           0      0.00%      0.00% |           0      0.00%      0.00% |           0      0.00%      0.00% |           0      0.00%      0.00% |           0      0.00%      0.00% |           0      0.00%      0.00% |           0      0.00%      0.00% |           0      0.00%      0.00% |           2    100.00%    100.00% |           0      0.00%    100.00% |           0      0.00%    100.00% |           0      0.00%    100.00% |           0      0.00%    100.00%
system.ruby.L2Cache_Controller.MT_IIB.WB_Data_clean::total            2                      
system.ruby.L2Cache_Controller.MT_SB.Unblock |           1      1.20%      1.20% |           2      2.41%      3.61% |           1      1.20%      4.82% |           3      3.61%      8.43% |           3      3.61%     12.05% |           3      3.61%     15.66% |           4      4.82%     20.48% |           3      3.61%     24.10% |           5      6.02%     30.12% |           3      3.61%     33.73% |           2      2.41%     36.14% |           2      2.41%     38.55% |           3      3.61%     42.17% |           3      3.61%     45.78% |           4      4.82%     50.60% |           3      3.61%     54.22% |           3      3.61%     57.83% |           1      1.20%     59.04% |           2      2.41%     61.45% |           0      0.00%     61.45% |           1      1.20%     62.65% |           0      0.00%     62.65% |           1      1.20%     63.86% |           2      2.41%     66.27% |           3      3.61%     69.88% |           5      6.02%     75.90% |           4      4.82%     80.72% |           7      8.43%     89.16% |           3      3.61%     92.77% |           2      2.41%     95.18% |           2      2.41%     97.59% |           2      2.41%    100.00%
system.ruby.L2Cache_Controller.MT_SB.Unblock::total           83                      
system.ruby.SimicsNetworkPortInterface_Controller.MessageSend |       51573     16.69%     16.69% |      154476     50.00%     66.69% |      102903     33.31%    100.00% |           0      0.00%    100.00% |           0      0.00%    100.00% |           0      0.00%    100.00% |           0      0.00%    100.00% |           0      0.00%    100.00% |           0      0.00%    100.00% |           0      0.00%    100.00% |           0      0.00%    100.00% |           0      0.00%    100.00% |           0      0.00%    100.00% |           0      0.00%    100.00% |           0      0.00%    100.00% |           0      0.00%    100.00% |           0      0.00%    100.00% |           0      0.00%    100.00% |           0      0.00%    100.00% |           0      0.00%    100.00% |           0      0.00%    100.00% |           0      0.00%    100.00% |           0      0.00%    100.00% |           0      0.00%    100.00% |           0      0.00%    100.00% |           0      0.00%    100.00% |           0      0.00%    100.00% |           0      0.00%    100.00% |           0      0.00%    100.00% |           0      0.00%    100.00% |           0      0.00%    100.00% |           0      0.00%    100.00%
system.ruby.SimicsNetworkPortInterface_Controller.MessageSend::total       308952                      
system.ruby.SimicsNetworkPortInterface_Controller.MessageRecv |       51573     16.69%     16.69% |      154476     50.00%     66.69% |      102903     33.31%    100.00% |           0      0.00%    100.00% |           0      0.00%    100.00% |           0      0.00%    100.00% |           0      0.00%    100.00% |           0      0.00%    100.00% |           0      0.00%    100.00% |           0      0.00%    100.00% |           0      0.00%    100.00% |           0      0.00%    100.00% |           0      0.00%    100.00% |           0      0.00%    100.00% |           0      0.00%    100.00% |           0      0.00%    100.00% |           0      0.00%    100.00% |           0      0.00%    100.00% |           0      0.00%    100.00% |           0      0.00%    100.00% |           0      0.00%    100.00% |           0      0.00%    100.00% |           0      0.00%    100.00% |           0      0.00%    100.00% |           0      0.00%    100.00% |           0      0.00%    100.00% |           0      0.00%    100.00% |           0      0.00%    100.00% |           0      0.00%    100.00% |           0      0.00%    100.00% |           0      0.00%    100.00% |           0      0.00%    100.00%
system.ruby.SimicsNetworkPortInterface_Controller.MessageRecv::total       308952                      
system.ruby.SimicsNetworkPortInterface_Controller.A.MessageSend |       51573     16.69%     16.69% |      154476     50.00%     66.69% |      102903     33.31%    100.00% |           0      0.00%    100.00% |           0      0.00%    100.00% |           0      0.00%    100.00% |           0      0.00%    100.00% |           0      0.00%    100.00% |           0      0.00%    100.00% |           0      0.00%    100.00% |           0      0.00%    100.00% |           0      0.00%    100.00% |           0      0.00%    100.00% |           0      0.00%    100.00% |           0      0.00%    100.00% |           0      0.00%    100.00% |           0      0.00%    100.00% |           0      0.00%    100.00% |           0      0.00%    100.00% |           0      0.00%    100.00% |           0      0.00%    100.00% |           0      0.00%    100.00% |           0      0.00%    100.00% |           0      0.00%    100.00% |           0      0.00%    100.00% |           0      0.00%    100.00% |           0      0.00%    100.00% |           0      0.00%    100.00% |           0      0.00%    100.00% |           0      0.00%    100.00% |           0      0.00%    100.00% |           0      0.00%    100.00%
system.ruby.SimicsNetworkPortInterface_Controller.A.MessageSend::total       308952                      
system.ruby.SimicsNetworkPortInterface_Controller.A.MessageRecv |       51573     16.69%     16.69% |      154476     50.00%     66.69% |      102903     33.31%    100.00% |           0      0.00%    100.00% |           0      0.00%    100.00% |           0      0.00%    100.00% |           0      0.00%    100.00% |           0      0.00%    100.00% |           0      0.00%    100.00% |           0      0.00%    100.00% |           0      0.00%    100.00% |           0      0.00%    100.00% |           0      0.00%    100.00% |           0      0.00%    100.00% |           0      0.00%    100.00% |           0      0.00%    100.00% |           0      0.00%    100.00% |           0      0.00%    100.00% |           0      0.00%    100.00% |           0      0.00%    100.00% |           0      0.00%    100.00% |           0      0.00%    100.00% |           0      0.00%    100.00% |           0      0.00%    100.00% |           0      0.00%    100.00% |           0      0.00%    100.00% |           0      0.00%    100.00% |           0      0.00%    100.00% |           0      0.00%    100.00% |           0      0.00%    100.00% |           0      0.00%    100.00% |           0      0.00%    100.00%
system.ruby.SimicsNetworkPortInterface_Controller.A.MessageRecv::total       308952                      
system.switch_cpus.kern.inst.arm                    0                       # number of arm instructions executed
system.switch_cpus.kern.inst.quiesce                0                       # number of quiesce instructions executed

---------- End Simulation Statistics   ----------
