
---------- Begin Simulation Statistics ----------
sim_seconds                                  0.038011                       # Number of seconds simulated
sim_ticks                                 38011295500                       # Number of ticks simulated
final_tick                               5214179374000                       # Number of ticks from beginning of simulation (restored from checkpoints and never reset)
sim_freq                                 1000000000000                       # Frequency of simulated ticks
host_inst_rate                                  62917                       # Simulator instruction rate (inst/s)
host_op_rate                                   113174                       # Simulator op (including micro ops) rate (op/s)
host_tick_rate                               98536297                       # Simulator tick rate (ticks/s)
host_mem_usage                                6217176                       # Number of bytes of host memory used
host_seconds                                   385.76                       # Real time elapsed on the host
sim_insts                                    24271005                       # Number of instructions simulated
sim_ops                                      43657881                       # Number of ops (including micro ops) simulated
system.voltage_domain.voltage                       1                       # Voltage in Volts
system.clk_domain.clock                           500                       # Clock period in ticks
system.mem_ctrls0.bytes_read::ruby.dir_cntrl0      4968768                       # Number of bytes read from this memory
system.mem_ctrls0.bytes_read::total           4968768                       # Number of bytes read from this memory
system.mem_ctrls0.bytes_written::ruby.dir_cntrl0      3965184                       # Number of bytes written to this memory
system.mem_ctrls0.bytes_written::total        3965184                       # Number of bytes written to this memory
system.mem_ctrls0.num_reads::ruby.dir_cntrl0        77637                       # Number of read requests responded to by this memory
system.mem_ctrls0.num_reads::total              77637                       # Number of read requests responded to by this memory
system.mem_ctrls0.num_writes::ruby.dir_cntrl0        61956                       # Number of write requests responded to by this memory
system.mem_ctrls0.num_writes::total             61956                       # Number of write requests responded to by this memory
system.mem_ctrls0.bw_read::ruby.dir_cntrl0    130718197                       # Total read bandwidth from this memory (bytes/s)
system.mem_ctrls0.bw_read::total            130718197                       # Total read bandwidth from this memory (bytes/s)
system.mem_ctrls0.bw_write::ruby.dir_cntrl0    104315939                       # Write bandwidth from this memory (bytes/s)
system.mem_ctrls0.bw_write::total           104315939                       # Write bandwidth from this memory (bytes/s)
system.mem_ctrls0.bw_total::ruby.dir_cntrl0    235034136                       # Total bandwidth to/from this memory (bytes/s)
system.mem_ctrls0.bw_total::total           235034136                       # Total bandwidth to/from this memory (bytes/s)
system.mem_ctrls0.readReqs                      77637                       # Number of read requests accepted
system.mem_ctrls0.writeReqs                     61956                       # Number of write requests accepted
system.mem_ctrls0.readBursts                    77637                       # Number of DRAM read bursts, including those serviced by the write queue
system.mem_ctrls0.writeBursts                   61956                       # Number of DRAM write bursts, including those merged in the write queue
system.mem_ctrls0.bytesReadDRAM               4967296                       # Total number of bytes read from DRAM
system.mem_ctrls0.bytesReadWrQ                   1472                       # Total number of bytes read from write queue
system.mem_ctrls0.bytesWritten                3964992                       # Total number of bytes written to DRAM
system.mem_ctrls0.bytesReadSys                4968768                       # Total read bytes from the system interface side
system.mem_ctrls0.bytesWrittenSys             3965184                       # Total written bytes from the system interface side
system.mem_ctrls0.servicedByWrQ                    23                       # Number of DRAM read bursts serviced by the write queue
system.mem_ctrls0.mergedWrBursts                    0                       # Number of DRAM write bursts merged with an existing one
system.mem_ctrls0.neitherReadNorWriteReqs            0                       # Number of requests that are neither read nor write
system.mem_ctrls0.perBankRdBursts::0             4396                       # Per bank write bursts
system.mem_ctrls0.perBankRdBursts::1             4842                       # Per bank write bursts
system.mem_ctrls0.perBankRdBursts::2             4546                       # Per bank write bursts
system.mem_ctrls0.perBankRdBursts::3             4966                       # Per bank write bursts
system.mem_ctrls0.perBankRdBursts::4             4853                       # Per bank write bursts
system.mem_ctrls0.perBankRdBursts::5             5351                       # Per bank write bursts
system.mem_ctrls0.perBankRdBursts::6             4944                       # Per bank write bursts
system.mem_ctrls0.perBankRdBursts::7             5219                       # Per bank write bursts
system.mem_ctrls0.perBankRdBursts::8             5047                       # Per bank write bursts
system.mem_ctrls0.perBankRdBursts::9             5205                       # Per bank write bursts
system.mem_ctrls0.perBankRdBursts::10            4616                       # Per bank write bursts
system.mem_ctrls0.perBankRdBursts::11            4794                       # Per bank write bursts
system.mem_ctrls0.perBankRdBursts::12            4592                       # Per bank write bursts
system.mem_ctrls0.perBankRdBursts::13            4630                       # Per bank write bursts
system.mem_ctrls0.perBankRdBursts::14            4798                       # Per bank write bursts
system.mem_ctrls0.perBankRdBursts::15            4815                       # Per bank write bursts
system.mem_ctrls0.perBankWrBursts::0             3623                       # Per bank write bursts
system.mem_ctrls0.perBankWrBursts::1             3568                       # Per bank write bursts
system.mem_ctrls0.perBankWrBursts::2             3643                       # Per bank write bursts
system.mem_ctrls0.perBankWrBursts::3             3793                       # Per bank write bursts
system.mem_ctrls0.perBankWrBursts::4             3862                       # Per bank write bursts
system.mem_ctrls0.perBankWrBursts::5             4191                       # Per bank write bursts
system.mem_ctrls0.perBankWrBursts::6             3924                       # Per bank write bursts
system.mem_ctrls0.perBankWrBursts::7             4189                       # Per bank write bursts
system.mem_ctrls0.perBankWrBursts::8             4058                       # Per bank write bursts
system.mem_ctrls0.perBankWrBursts::9             4136                       # Per bank write bursts
system.mem_ctrls0.perBankWrBursts::10            3698                       # Per bank write bursts
system.mem_ctrls0.perBankWrBursts::11            3637                       # Per bank write bursts
system.mem_ctrls0.perBankWrBursts::12            3795                       # Per bank write bursts
system.mem_ctrls0.perBankWrBursts::13            3901                       # Per bank write bursts
system.mem_ctrls0.perBankWrBursts::14            4029                       # Per bank write bursts
system.mem_ctrls0.perBankWrBursts::15            3906                       # Per bank write bursts
system.mem_ctrls0.numRdRetry                        2                       # Number of times read queue was full causing retry
system.mem_ctrls0.numWrRetry                      152                       # Number of times write queue was full causing retry
system.mem_ctrls0.totGap                  38010816000                       # Total gap between requests
system.mem_ctrls0.readPktSize::0                    0                       # Read request sizes (log2)
system.mem_ctrls0.readPktSize::1                    0                       # Read request sizes (log2)
system.mem_ctrls0.readPktSize::2                    0                       # Read request sizes (log2)
system.mem_ctrls0.readPktSize::3                    0                       # Read request sizes (log2)
system.mem_ctrls0.readPktSize::4                    0                       # Read request sizes (log2)
system.mem_ctrls0.readPktSize::5                    0                       # Read request sizes (log2)
system.mem_ctrls0.readPktSize::6                77637                       # Read request sizes (log2)
system.mem_ctrls0.writePktSize::0                   0                       # Write request sizes (log2)
system.mem_ctrls0.writePktSize::1                   0                       # Write request sizes (log2)
system.mem_ctrls0.writePktSize::2                   0                       # Write request sizes (log2)
system.mem_ctrls0.writePktSize::3                   0                       # Write request sizes (log2)
system.mem_ctrls0.writePktSize::4                   0                       # Write request sizes (log2)
system.mem_ctrls0.writePktSize::5                   0                       # Write request sizes (log2)
system.mem_ctrls0.writePktSize::6               61956                       # Write request sizes (log2)
system.mem_ctrls0.rdQLenPdf::0                  60264                       # What read queue length does an incoming req see
system.mem_ctrls0.rdQLenPdf::1                  10546                       # What read queue length does an incoming req see
system.mem_ctrls0.rdQLenPdf::2                   3354                       # What read queue length does an incoming req see
system.mem_ctrls0.rdQLenPdf::3                   1355                       # What read queue length does an incoming req see
system.mem_ctrls0.rdQLenPdf::4                    743                       # What read queue length does an incoming req see
system.mem_ctrls0.rdQLenPdf::5                    421                       # What read queue length does an incoming req see
system.mem_ctrls0.rdQLenPdf::6                    266                       # What read queue length does an incoming req see
system.mem_ctrls0.rdQLenPdf::7                    162                       # What read queue length does an incoming req see
system.mem_ctrls0.rdQLenPdf::8                    106                       # What read queue length does an incoming req see
system.mem_ctrls0.rdQLenPdf::9                     68                       # What read queue length does an incoming req see
system.mem_ctrls0.rdQLenPdf::10                    44                       # What read queue length does an incoming req see
system.mem_ctrls0.rdQLenPdf::11                    45                       # What read queue length does an incoming req see
system.mem_ctrls0.rdQLenPdf::12                    37                       # What read queue length does an incoming req see
system.mem_ctrls0.rdQLenPdf::13                    30                       # What read queue length does an incoming req see
system.mem_ctrls0.rdQLenPdf::14                    24                       # What read queue length does an incoming req see
system.mem_ctrls0.rdQLenPdf::15                    19                       # What read queue length does an incoming req see
system.mem_ctrls0.rdQLenPdf::16                    17                       # What read queue length does an incoming req see
system.mem_ctrls0.rdQLenPdf::17                    16                       # What read queue length does an incoming req see
system.mem_ctrls0.rdQLenPdf::18                    15                       # What read queue length does an incoming req see
system.mem_ctrls0.rdQLenPdf::19                    14                       # What read queue length does an incoming req see
system.mem_ctrls0.rdQLenPdf::20                    12                       # What read queue length does an incoming req see
system.mem_ctrls0.rdQLenPdf::21                    13                       # What read queue length does an incoming req see
system.mem_ctrls0.rdQLenPdf::22                     9                       # What read queue length does an incoming req see
system.mem_ctrls0.rdQLenPdf::23                     5                       # What read queue length does an incoming req see
system.mem_ctrls0.rdQLenPdf::24                     5                       # What read queue length does an incoming req see
system.mem_ctrls0.rdQLenPdf::25                     5                       # What read queue length does an incoming req see
system.mem_ctrls0.rdQLenPdf::26                     6                       # What read queue length does an incoming req see
system.mem_ctrls0.rdQLenPdf::27                     3                       # What read queue length does an incoming req see
system.mem_ctrls0.rdQLenPdf::28                     4                       # What read queue length does an incoming req see
system.mem_ctrls0.rdQLenPdf::29                     2                       # What read queue length does an incoming req see
system.mem_ctrls0.rdQLenPdf::30                     1                       # What read queue length does an incoming req see
system.mem_ctrls0.rdQLenPdf::31                     3                       # What read queue length does an incoming req see
system.mem_ctrls0.wrQLenPdf::0                  11544                       # What write queue length does an incoming req see
system.mem_ctrls0.wrQLenPdf::1                  12678                       # What write queue length does an incoming req see
system.mem_ctrls0.wrQLenPdf::2                  12666                       # What write queue length does an incoming req see
system.mem_ctrls0.wrQLenPdf::3                  12296                       # What write queue length does an incoming req see
system.mem_ctrls0.wrQLenPdf::4                  11978                       # What write queue length does an incoming req see
system.mem_ctrls0.wrQLenPdf::5                    398                       # What write queue length does an incoming req see
system.mem_ctrls0.wrQLenPdf::6                    171                       # What write queue length does an incoming req see
system.mem_ctrls0.wrQLenPdf::7                    225                       # What write queue length does an incoming req see
system.mem_ctrls0.bytesPerActivate::samples        53078                       # Bytes accessed per row activation
system.mem_ctrls0.bytesPerActivate::mean   168.267983                       # Bytes accessed per row activation
system.mem_ctrls0.bytesPerActivate::gmean   119.593107                       # Bytes accessed per row activation
system.mem_ctrls0.bytesPerActivate::stdev   174.748285                       # Bytes accessed per row activation
system.mem_ctrls0.bytesPerActivate::0-127        27402     51.63%     51.63% # Bytes accessed per row activation
system.mem_ctrls0.bytesPerActivate::128-255        13073     24.63%     76.26% # Bytes accessed per row activation
system.mem_ctrls0.bytesPerActivate::256-383         7659     14.43%     90.69% # Bytes accessed per row activation
system.mem_ctrls0.bytesPerActivate::384-511         1935      3.65%     94.33% # Bytes accessed per row activation
system.mem_ctrls0.bytesPerActivate::512-639         1109      2.09%     96.42% # Bytes accessed per row activation
system.mem_ctrls0.bytesPerActivate::640-767          586      1.10%     97.52% # Bytes accessed per row activation
system.mem_ctrls0.bytesPerActivate::768-895          427      0.80%     98.33% # Bytes accessed per row activation
system.mem_ctrls0.bytesPerActivate::896-1023          319      0.60%     98.93% # Bytes accessed per row activation
system.mem_ctrls0.bytesPerActivate::1024-1151          568      1.07%    100.00% # Bytes accessed per row activation
system.mem_ctrls0.bytesPerActivate::total        53078                       # Bytes accessed per row activation
system.mem_ctrls0.rdPerTurnAround::samples        11564                       # Reads before turning the bus around for writes
system.mem_ctrls0.rdPerTurnAround::mean      6.710913                       # Reads before turning the bus around for writes
system.mem_ctrls0.rdPerTurnAround::stdev    37.544564                       # Reads before turning the bus around for writes
system.mem_ctrls0.rdPerTurnAround::0-127        11558     99.95%     99.95% # Reads before turning the bus around for writes
system.mem_ctrls0.rdPerTurnAround::128-255            5      0.04%     99.99% # Reads before turning the bus around for writes
system.mem_ctrls0.rdPerTurnAround::3968-4095            1      0.01%    100.00% # Reads before turning the bus around for writes
system.mem_ctrls0.rdPerTurnAround::total        11564                       # Reads before turning the bus around for writes
system.mem_ctrls0.wrPerTurnAround::samples        11564                       # Writes before turning the bus around for reads
system.mem_ctrls0.wrPerTurnAround::mean      5.357402                       # Writes before turning the bus around for reads
system.mem_ctrls0.wrPerTurnAround::gmean     5.284423                       # Writes before turning the bus around for reads
system.mem_ctrls0.wrPerTurnAround::stdev     1.098845                       # Writes before turning the bus around for reads
system.mem_ctrls0.wrPerTurnAround::4-7          11083     95.84%     95.84% # Writes before turning the bus around for reads
system.mem_ctrls0.wrPerTurnAround::8-11           406      3.51%     99.35% # Writes before turning the bus around for reads
system.mem_ctrls0.wrPerTurnAround::12-15           52      0.45%     99.80% # Writes before turning the bus around for reads
system.mem_ctrls0.wrPerTurnAround::16-19           23      0.20%    100.00% # Writes before turning the bus around for reads
system.mem_ctrls0.wrPerTurnAround::total        11564                       # Writes before turning the bus around for reads
system.mem_ctrls0.totQLat                  1841895826                       # Total ticks spent queuing
system.mem_ctrls0.totMemAccLat             3297158326                       # Total ticks spent from burst creation until serviced by the DRAM
system.mem_ctrls0.totBusLat                 388070000                       # Total ticks spent in databus transfers
system.mem_ctrls0.avgQLat                    23731.49                       # Average queueing delay per DRAM burst
system.mem_ctrls0.avgBusLat                   5000.00                       # Average bus latency per DRAM burst
system.mem_ctrls0.avgMemAccLat               42481.49                       # Average memory access latency per DRAM burst
system.mem_ctrls0.avgRdBW                      130.68                       # Average DRAM read bandwidth in MiByte/s
system.mem_ctrls0.avgWrBW                      104.31                       # Average achieved write bandwidth in MiByte/s
system.mem_ctrls0.avgRdBWSys                   130.72                       # Average system read bandwidth in MiByte/s
system.mem_ctrls0.avgWrBWSys                   104.32                       # Average system write bandwidth in MiByte/s
system.mem_ctrls0.peakBW                     12800.00                       # Theoretical peak bandwidth in MiByte/s
system.mem_ctrls0.busUtil                        1.84                       # Data bus utilization in percentage
system.mem_ctrls0.busUtilRead                    1.02                       # Data bus utilization in percentage for reads
system.mem_ctrls0.busUtilWrite                   0.81                       # Data bus utilization in percentage for writes
system.mem_ctrls0.avgRdQLen                      1.10                       # Average read queue length when enqueuing
system.mem_ctrls0.avgWrQLen                      2.85                       # Average write queue length when enqueuing
system.mem_ctrls0.readRowHits                   53304                       # Number of row buffer hits during reads
system.mem_ctrls0.writeRowHits                  33177                       # Number of row buffer hits during writes
system.mem_ctrls0.readRowHitRate                68.68                       # Row buffer hit rate for reads
system.mem_ctrls0.writeRowHitRate               53.55                       # Row buffer hit rate for writes
system.mem_ctrls0.avgGap                    272297.44                       # Average gap between requests
system.mem_ctrls0.pageHitRate                   61.96                       # Row buffer hit rate, read and write combined
system.mem_ctrls0.memoryStateTime::IDLE    8518946750                       # Time in different power states
system.mem_ctrls0.memoryStateTime::REF     1269060000                       # Time in different power states
system.mem_ctrls0.memoryStateTime::PRE_PDN            0                       # Time in different power states
system.mem_ctrls0.memoryStateTime::ACT    28217295250                       # Time in different power states
system.mem_ctrls0.memoryStateTime::ACT_PDN            0                       # Time in different power states
system.mem_ctrls0.actEnergy::0              199992240                       # Energy for activate commands per rank (pJ)
system.mem_ctrls0.actEnergy::1              201224520                       # Energy for activate commands per rank (pJ)
system.mem_ctrls0.preEnergy::0              109122750                       # Energy for precharge commands per rank (pJ)
system.mem_ctrls0.preEnergy::1              109795125                       # Energy for precharge commands per rank (pJ)
system.mem_ctrls0.readEnergy::0             305058000                       # Energy for read commands per rank (pJ)
system.mem_ctrls0.readEnergy::1             300190800                       # Energy for read commands per rank (pJ)
system.mem_ctrls0.writeEnergy::0            199532160                       # Energy for write commands per rank (pJ)
system.mem_ctrls0.writeEnergy::1            201852000                       # Energy for write commands per rank (pJ)
system.mem_ctrls0.refreshEnergy::0         2482281360                       # Energy for refresh commands per rank (pJ)
system.mem_ctrls0.refreshEnergy::1         2482281360                       # Energy for refresh commands per rank (pJ)
system.mem_ctrls0.actBackEnergy::0        15290189010                       # Energy for active background per rank (pJ)
system.mem_ctrls0.actBackEnergy::1        14831764515                       # Energy for active background per rank (pJ)
system.mem_ctrls0.preBackEnergy::0         9390521250                       # Energy for precharge background per rank (pJ)
system.mem_ctrls0.preBackEnergy::1         9792648000                       # Energy for precharge background per rank (pJ)
system.mem_ctrls0.totalEnergy::0          27976696770                       # Total energy per rank (pJ)
system.mem_ctrls0.totalEnergy::1          27919756320                       # Total energy per rank (pJ)
system.mem_ctrls0.averagePower::0          736.133044                       # Core power per rank (mW)
system.mem_ctrls0.averagePower::1          734.634806                       # Core power per rank (mW)
system.mem_ctrls1.bytes_read::ruby.dir_cntrl1      4881920                       # Number of bytes read from this memory
system.mem_ctrls1.bytes_read::total           4881920                       # Number of bytes read from this memory
system.mem_ctrls1.bytes_written::ruby.dir_cntrl1      3886080                       # Number of bytes written to this memory
system.mem_ctrls1.bytes_written::total        3886080                       # Number of bytes written to this memory
system.mem_ctrls1.num_reads::ruby.dir_cntrl1        76280                       # Number of read requests responded to by this memory
system.mem_ctrls1.num_reads::total              76280                       # Number of read requests responded to by this memory
system.mem_ctrls1.num_writes::ruby.dir_cntrl1        60720                       # Number of write requests responded to by this memory
system.mem_ctrls1.num_writes::total             60720                       # Number of write requests responded to by this memory
system.mem_ctrls1.bw_read::ruby.dir_cntrl1    128433402                       # Total read bandwidth from this memory (bytes/s)
system.mem_ctrls1.bw_read::total            128433402                       # Total read bandwidth from this memory (bytes/s)
system.mem_ctrls1.bw_write::ruby.dir_cntrl1    102234874                       # Write bandwidth from this memory (bytes/s)
system.mem_ctrls1.bw_write::total           102234874                       # Write bandwidth from this memory (bytes/s)
system.mem_ctrls1.bw_total::ruby.dir_cntrl1    230668276                       # Total bandwidth to/from this memory (bytes/s)
system.mem_ctrls1.bw_total::total           230668276                       # Total bandwidth to/from this memory (bytes/s)
system.mem_ctrls1.readReqs                      76280                       # Number of read requests accepted
system.mem_ctrls1.writeReqs                     60720                       # Number of write requests accepted
system.mem_ctrls1.readBursts                    76280                       # Number of DRAM read bursts, including those serviced by the write queue
system.mem_ctrls1.writeBursts                   60720                       # Number of DRAM write bursts, including those merged in the write queue
system.mem_ctrls1.bytesReadDRAM               4881216                       # Total number of bytes read from DRAM
system.mem_ctrls1.bytesReadWrQ                    704                       # Total number of bytes read from write queue
system.mem_ctrls1.bytesWritten                3886080                       # Total number of bytes written to DRAM
system.mem_ctrls1.bytesReadSys                4881920                       # Total read bytes from the system interface side
system.mem_ctrls1.bytesWrittenSys             3886080                       # Total written bytes from the system interface side
system.mem_ctrls1.servicedByWrQ                    11                       # Number of DRAM read bursts serviced by the write queue
system.mem_ctrls1.mergedWrBursts                    0                       # Number of DRAM write bursts merged with an existing one
system.mem_ctrls1.neitherReadNorWriteReqs            0                       # Number of requests that are neither read nor write
system.mem_ctrls1.perBankRdBursts::0             4325                       # Per bank write bursts
system.mem_ctrls1.perBankRdBursts::1             4748                       # Per bank write bursts
system.mem_ctrls1.perBankRdBursts::2             4462                       # Per bank write bursts
system.mem_ctrls1.perBankRdBursts::3             4894                       # Per bank write bursts
system.mem_ctrls1.perBankRdBursts::4             4784                       # Per bank write bursts
system.mem_ctrls1.perBankRdBursts::5             5298                       # Per bank write bursts
system.mem_ctrls1.perBankRdBursts::6             4885                       # Per bank write bursts
system.mem_ctrls1.perBankRdBursts::7             5161                       # Per bank write bursts
system.mem_ctrls1.perBankRdBursts::8             4936                       # Per bank write bursts
system.mem_ctrls1.perBankRdBursts::9             5093                       # Per bank write bursts
system.mem_ctrls1.perBankRdBursts::10            4518                       # Per bank write bursts
system.mem_ctrls1.perBankRdBursts::11            4727                       # Per bank write bursts
system.mem_ctrls1.perBankRdBursts::12            4493                       # Per bank write bursts
system.mem_ctrls1.perBankRdBursts::13            4570                       # Per bank write bursts
system.mem_ctrls1.perBankRdBursts::14            4635                       # Per bank write bursts
system.mem_ctrls1.perBankRdBursts::15            4740                       # Per bank write bursts
system.mem_ctrls1.perBankWrBursts::0             3557                       # Per bank write bursts
system.mem_ctrls1.perBankWrBursts::1             3507                       # Per bank write bursts
system.mem_ctrls1.perBankWrBursts::2             3574                       # Per bank write bursts
system.mem_ctrls1.perBankWrBursts::3             3743                       # Per bank write bursts
system.mem_ctrls1.perBankWrBursts::4             3792                       # Per bank write bursts
system.mem_ctrls1.perBankWrBursts::5             4122                       # Per bank write bursts
system.mem_ctrls1.perBankWrBursts::6             3847                       # Per bank write bursts
system.mem_ctrls1.perBankWrBursts::7             4105                       # Per bank write bursts
system.mem_ctrls1.perBankWrBursts::8             3968                       # Per bank write bursts
system.mem_ctrls1.perBankWrBursts::9             4038                       # Per bank write bursts
system.mem_ctrls1.perBankWrBursts::10            3617                       # Per bank write bursts
system.mem_ctrls1.perBankWrBursts::11            3570                       # Per bank write bursts
system.mem_ctrls1.perBankWrBursts::12            3719                       # Per bank write bursts
system.mem_ctrls1.perBankWrBursts::13            3826                       # Per bank write bursts
system.mem_ctrls1.perBankWrBursts::14            3898                       # Per bank write bursts
system.mem_ctrls1.perBankWrBursts::15            3837                       # Per bank write bursts
system.mem_ctrls1.numRdRetry                        0                       # Number of times read queue was full causing retry
system.mem_ctrls1.numWrRetry                      154                       # Number of times write queue was full causing retry
system.mem_ctrls1.totGap                  38010577500                       # Total gap between requests
system.mem_ctrls1.readPktSize::0                    0                       # Read request sizes (log2)
system.mem_ctrls1.readPktSize::1                    0                       # Read request sizes (log2)
system.mem_ctrls1.readPktSize::2                    0                       # Read request sizes (log2)
system.mem_ctrls1.readPktSize::3                    0                       # Read request sizes (log2)
system.mem_ctrls1.readPktSize::4                    0                       # Read request sizes (log2)
system.mem_ctrls1.readPktSize::5                    0                       # Read request sizes (log2)
system.mem_ctrls1.readPktSize::6                76280                       # Read request sizes (log2)
system.mem_ctrls1.writePktSize::0                   0                       # Write request sizes (log2)
system.mem_ctrls1.writePktSize::1                   0                       # Write request sizes (log2)
system.mem_ctrls1.writePktSize::2                   0                       # Write request sizes (log2)
system.mem_ctrls1.writePktSize::3                   0                       # Write request sizes (log2)
system.mem_ctrls1.writePktSize::4                   0                       # Write request sizes (log2)
system.mem_ctrls1.writePktSize::5                   0                       # Write request sizes (log2)
system.mem_ctrls1.writePktSize::6               60720                       # Write request sizes (log2)
system.mem_ctrls1.rdQLenPdf::0                  59505                       # What read queue length does an incoming req see
system.mem_ctrls1.rdQLenPdf::1                  10152                       # What read queue length does an incoming req see
system.mem_ctrls1.rdQLenPdf::2                   3180                       # What read queue length does an incoming req see
system.mem_ctrls1.rdQLenPdf::3                   1308                       # What read queue length does an incoming req see
system.mem_ctrls1.rdQLenPdf::4                    752                       # What read queue length does an incoming req see
system.mem_ctrls1.rdQLenPdf::5                    454                       # What read queue length does an incoming req see
system.mem_ctrls1.rdQLenPdf::6                    286                       # What read queue length does an incoming req see
system.mem_ctrls1.rdQLenPdf::7                    159                       # What read queue length does an incoming req see
system.mem_ctrls1.rdQLenPdf::8                     96                       # What read queue length does an incoming req see
system.mem_ctrls1.rdQLenPdf::9                     64                       # What read queue length does an incoming req see
system.mem_ctrls1.rdQLenPdf::10                    54                       # What read queue length does an incoming req see
system.mem_ctrls1.rdQLenPdf::11                    44                       # What read queue length does an incoming req see
system.mem_ctrls1.rdQLenPdf::12                    31                       # What read queue length does an incoming req see
system.mem_ctrls1.rdQLenPdf::13                    29                       # What read queue length does an incoming req see
system.mem_ctrls1.rdQLenPdf::14                    25                       # What read queue length does an incoming req see
system.mem_ctrls1.rdQLenPdf::15                    24                       # What read queue length does an incoming req see
system.mem_ctrls1.rdQLenPdf::16                    17                       # What read queue length does an incoming req see
system.mem_ctrls1.rdQLenPdf::17                    15                       # What read queue length does an incoming req see
system.mem_ctrls1.rdQLenPdf::18                    13                       # What read queue length does an incoming req see
system.mem_ctrls1.rdQLenPdf::19                     8                       # What read queue length does an incoming req see
system.mem_ctrls1.rdQLenPdf::20                    10                       # What read queue length does an incoming req see
system.mem_ctrls1.rdQLenPdf::21                     7                       # What read queue length does an incoming req see
system.mem_ctrls1.rdQLenPdf::22                     8                       # What read queue length does an incoming req see
system.mem_ctrls1.rdQLenPdf::23                     4                       # What read queue length does an incoming req see
system.mem_ctrls1.rdQLenPdf::24                     5                       # What read queue length does an incoming req see
system.mem_ctrls1.rdQLenPdf::25                     3                       # What read queue length does an incoming req see
system.mem_ctrls1.rdQLenPdf::26                     4                       # What read queue length does an incoming req see
system.mem_ctrls1.rdQLenPdf::27                     5                       # What read queue length does an incoming req see
system.mem_ctrls1.rdQLenPdf::28                     3                       # What read queue length does an incoming req see
system.mem_ctrls1.rdQLenPdf::29                     2                       # What read queue length does an incoming req see
system.mem_ctrls1.rdQLenPdf::30                     1                       # What read queue length does an incoming req see
system.mem_ctrls1.rdQLenPdf::31                     1                       # What read queue length does an incoming req see
system.mem_ctrls1.wrQLenPdf::0                  11308                       # What write queue length does an incoming req see
system.mem_ctrls1.wrQLenPdf::1                  12349                       # What write queue length does an incoming req see
system.mem_ctrls1.wrQLenPdf::2                  12396                       # What write queue length does an incoming req see
system.mem_ctrls1.wrQLenPdf::3                  12134                       # What write queue length does an incoming req see
system.mem_ctrls1.wrQLenPdf::4                  11757                       # What write queue length does an incoming req see
system.mem_ctrls1.wrQLenPdf::5                    382                       # What write queue length does an incoming req see
system.mem_ctrls1.wrQLenPdf::6                    150                       # What write queue length does an incoming req see
system.mem_ctrls1.wrQLenPdf::7                    244                       # What write queue length does an incoming req see
system.mem_ctrls1.bytesPerActivate::samples        50924                       # Bytes accessed per row activation
system.mem_ctrls1.bytesPerActivate::mean   172.144215                       # Bytes accessed per row activation
system.mem_ctrls1.bytesPerActivate::gmean   121.715581                       # Bytes accessed per row activation
system.mem_ctrls1.bytesPerActivate::stdev   178.861937                       # Bytes accessed per row activation
system.mem_ctrls1.bytesPerActivate::0-127        25756     50.58%     50.58% # Bytes accessed per row activation
system.mem_ctrls1.bytesPerActivate::128-255        12709     24.96%     75.53% # Bytes accessed per row activation
system.mem_ctrls1.bytesPerActivate::256-383         7475     14.68%     90.21% # Bytes accessed per row activation
system.mem_ctrls1.bytesPerActivate::384-511         1899      3.73%     93.94% # Bytes accessed per row activation
system.mem_ctrls1.bytesPerActivate::512-639         1116      2.19%     96.13% # Bytes accessed per row activation
system.mem_ctrls1.bytesPerActivate::640-767          634      1.24%     97.38% # Bytes accessed per row activation
system.mem_ctrls1.bytesPerActivate::768-895          417      0.82%     98.20% # Bytes accessed per row activation
system.mem_ctrls1.bytesPerActivate::896-1023          317      0.62%     98.82% # Bytes accessed per row activation
system.mem_ctrls1.bytesPerActivate::1024-1151          601      1.18%    100.00% # Bytes accessed per row activation
system.mem_ctrls1.bytesPerActivate::total        50924                       # Bytes accessed per row activation
system.mem_ctrls1.rdPerTurnAround::samples        11331                       # Reads before turning the bus around for writes
system.mem_ctrls1.rdPerTurnAround::mean      6.731003                       # Reads before turning the bus around for writes
system.mem_ctrls1.rdPerTurnAround::stdev    29.896562                       # Reads before turning the bus around for writes
system.mem_ctrls1.rdPerTurnAround::0-127        11326     99.96%     99.96% # Reads before turning the bus around for writes
system.mem_ctrls1.rdPerTurnAround::128-255            3      0.03%     99.98% # Reads before turning the bus around for writes
system.mem_ctrls1.rdPerTurnAround::1152-1279            1      0.01%     99.99% # Reads before turning the bus around for writes
system.mem_ctrls1.rdPerTurnAround::2816-2943            1      0.01%    100.00% # Reads before turning the bus around for writes
system.mem_ctrls1.rdPerTurnAround::total        11331                       # Reads before turning the bus around for writes
system.mem_ctrls1.wrPerTurnAround::samples        11331                       # Writes before turning the bus around for reads
system.mem_ctrls1.wrPerTurnAround::mean      5.358750                       # Writes before turning the bus around for reads
system.mem_ctrls1.wrPerTurnAround::gmean     5.282804                       # Writes before turning the bus around for reads
system.mem_ctrls1.wrPerTurnAround::stdev     1.132551                       # Writes before turning the bus around for reads
system.mem_ctrls1.wrPerTurnAround::4-7          10879     96.01%     96.01% # Writes before turning the bus around for reads
system.mem_ctrls1.wrPerTurnAround::8-11           366      3.23%     99.24% # Writes before turning the bus around for reads
system.mem_ctrls1.wrPerTurnAround::12-15           60      0.53%     99.77% # Writes before turning the bus around for reads
system.mem_ctrls1.wrPerTurnAround::16-19           26      0.23%    100.00% # Writes before turning the bus around for reads
system.mem_ctrls1.wrPerTurnAround::total        11331                       # Writes before turning the bus around for reads
system.mem_ctrls1.totQLat                  1796263056                       # Total ticks spent queuing
system.mem_ctrls1.totMemAccLat             3226306806                       # Total ticks spent from burst creation until serviced by the DRAM
system.mem_ctrls1.totBusLat                 381345000                       # Total ticks spent in databus transfers
system.mem_ctrls1.avgQLat                    23551.68                       # Average queueing delay per DRAM burst
system.mem_ctrls1.avgBusLat                   5000.00                       # Average bus latency per DRAM burst
system.mem_ctrls1.avgMemAccLat               42301.68                       # Average memory access latency per DRAM burst
system.mem_ctrls1.avgRdBW                      128.41                       # Average DRAM read bandwidth in MiByte/s
system.mem_ctrls1.avgWrBW                      102.23                       # Average achieved write bandwidth in MiByte/s
system.mem_ctrls1.avgRdBWSys                   128.43                       # Average system read bandwidth in MiByte/s
system.mem_ctrls1.avgWrBWSys                   102.23                       # Average system write bandwidth in MiByte/s
system.mem_ctrls1.peakBW                     12800.00                       # Theoretical peak bandwidth in MiByte/s
system.mem_ctrls1.busUtil                        1.80                       # Data bus utilization in percentage
system.mem_ctrls1.busUtilRead                    1.00                       # Data bus utilization in percentage for reads
system.mem_ctrls1.busUtilWrite                   0.80                       # Data bus utilization in percentage for writes
system.mem_ctrls1.avgRdQLen                      1.08                       # Average read queue length when enqueuing
system.mem_ctrls1.avgWrQLen                      2.91                       # Average write queue length when enqueuing
system.mem_ctrls1.readRowHits                   52663                       # Number of row buffer hits during reads
system.mem_ctrls1.writeRowHits                  33391                       # Number of row buffer hits during writes
system.mem_ctrls1.readRowHitRate                69.05                       # Row buffer hit rate for reads
system.mem_ctrls1.writeRowHitRate               54.99                       # Row buffer hit rate for writes
system.mem_ctrls1.avgGap                    277449.47                       # Average gap between requests
system.mem_ctrls1.pageHitRate                   62.82                       # Row buffer hit rate, read and write combined
system.mem_ctrls1.memoryStateTime::IDLE    8877263500                       # Time in different power states
system.mem_ctrls1.memoryStateTime::REF     1269060000                       # Time in different power states
system.mem_ctrls1.memoryStateTime::PRE_PDN            0                       # Time in different power states
system.mem_ctrls1.memoryStateTime::ACT    27858697000                       # Time in different power states
system.mem_ctrls1.memoryStateTime::ACT_PDN            0                       # Time in different power states
system.mem_ctrls1.actEnergy::0              193452840                       # Energy for activate commands per rank (pJ)
system.mem_ctrls1.actEnergy::1              191449440                       # Energy for activate commands per rank (pJ)
system.mem_ctrls1.preEnergy::0              105554625                       # Energy for precharge commands per rank (pJ)
system.mem_ctrls1.preEnergy::1              104461500                       # Energy for precharge commands per rank (pJ)
system.mem_ctrls1.readEnergy::0             300658800                       # Energy for read commands per rank (pJ)
system.mem_ctrls1.readEnergy::1             294052200                       # Energy for read commands per rank (pJ)
system.mem_ctrls1.writeEnergy::0            195994080                       # Energy for write commands per rank (pJ)
system.mem_ctrls1.writeEnergy::1            197348400                       # Energy for write commands per rank (pJ)
system.mem_ctrls1.refreshEnergy::0         2482281360                       # Energy for refresh commands per rank (pJ)
system.mem_ctrls1.refreshEnergy::1         2482281360                       # Energy for refresh commands per rank (pJ)
system.mem_ctrls1.actBackEnergy::0        15170035860                       # Energy for active background per rank (pJ)
system.mem_ctrls1.actBackEnergy::1        14438284110                       # Energy for active background per rank (pJ)
system.mem_ctrls1.preBackEnergy::0         9495955500                       # Energy for precharge background per rank (pJ)
system.mem_ctrls1.preBackEnergy::1        10137843000                       # Energy for precharge background per rank (pJ)
system.mem_ctrls1.totalEnergy::0          27943933065                       # Total energy per rank (pJ)
system.mem_ctrls1.totalEnergy::1          27845720010                       # Total energy per rank (pJ)
system.mem_ctrls1.averagePower::0          735.269768                       # Core power per rank (mW)
system.mem_ctrls1.averagePower::1          732.685555                       # Core power per rank (mW)
system.mem_ctrls2.bytes_read::ruby.dir_cntrl2      4880384                       # Number of bytes read from this memory
system.mem_ctrls2.bytes_read::total           4880384                       # Number of bytes read from this memory
system.mem_ctrls2.bytes_written::ruby.dir_cntrl2      3885440                       # Number of bytes written to this memory
system.mem_ctrls2.bytes_written::total        3885440                       # Number of bytes written to this memory
system.mem_ctrls2.num_reads::ruby.dir_cntrl2        76256                       # Number of read requests responded to by this memory
system.mem_ctrls2.num_reads::total              76256                       # Number of read requests responded to by this memory
system.mem_ctrls2.num_writes::ruby.dir_cntrl2        60710                       # Number of write requests responded to by this memory
system.mem_ctrls2.num_writes::total             60710                       # Number of write requests responded to by this memory
system.mem_ctrls2.bw_read::ruby.dir_cntrl2    128392993                       # Total read bandwidth from this memory (bytes/s)
system.mem_ctrls2.bw_read::total            128392993                       # Total read bandwidth from this memory (bytes/s)
system.mem_ctrls2.bw_write::ruby.dir_cntrl2    102218037                       # Write bandwidth from this memory (bytes/s)
system.mem_ctrls2.bw_write::total           102218037                       # Write bandwidth from this memory (bytes/s)
system.mem_ctrls2.bw_total::ruby.dir_cntrl2    230611030                       # Total bandwidth to/from this memory (bytes/s)
system.mem_ctrls2.bw_total::total           230611030                       # Total bandwidth to/from this memory (bytes/s)
system.mem_ctrls2.readReqs                      76256                       # Number of read requests accepted
system.mem_ctrls2.writeReqs                     60710                       # Number of write requests accepted
system.mem_ctrls2.readBursts                    76256                       # Number of DRAM read bursts, including those serviced by the write queue
system.mem_ctrls2.writeBursts                   60710                       # Number of DRAM write bursts, including those merged in the write queue
system.mem_ctrls2.bytesReadDRAM               4879360                       # Total number of bytes read from DRAM
system.mem_ctrls2.bytesReadWrQ                   1024                       # Total number of bytes read from write queue
system.mem_ctrls2.bytesWritten                3885440                       # Total number of bytes written to DRAM
system.mem_ctrls2.bytesReadSys                4880384                       # Total read bytes from the system interface side
system.mem_ctrls2.bytesWrittenSys             3885440                       # Total written bytes from the system interface side
system.mem_ctrls2.servicedByWrQ                    16                       # Number of DRAM read bursts serviced by the write queue
system.mem_ctrls2.mergedWrBursts                    0                       # Number of DRAM write bursts merged with an existing one
system.mem_ctrls2.neitherReadNorWriteReqs            0                       # Number of requests that are neither read nor write
system.mem_ctrls2.perBankRdBursts::0             4318                       # Per bank write bursts
system.mem_ctrls2.perBankRdBursts::1             4753                       # Per bank write bursts
system.mem_ctrls2.perBankRdBursts::2             4466                       # Per bank write bursts
system.mem_ctrls2.perBankRdBursts::3             4903                       # Per bank write bursts
system.mem_ctrls2.perBankRdBursts::4             4777                       # Per bank write bursts
system.mem_ctrls2.perBankRdBursts::5             5293                       # Per bank write bursts
system.mem_ctrls2.perBankRdBursts::6             4859                       # Per bank write bursts
system.mem_ctrls2.perBankRdBursts::7             5157                       # Per bank write bursts
system.mem_ctrls2.perBankRdBursts::8             4913                       # Per bank write bursts
system.mem_ctrls2.perBankRdBursts::9             5104                       # Per bank write bursts
system.mem_ctrls2.perBankRdBursts::10            4520                       # Per bank write bursts
system.mem_ctrls2.perBankRdBursts::11            4767                       # Per bank write bursts
system.mem_ctrls2.perBankRdBursts::12            4492                       # Per bank write bursts
system.mem_ctrls2.perBankRdBursts::13            4542                       # Per bank write bursts
system.mem_ctrls2.perBankRdBursts::14            4623                       # Per bank write bursts
system.mem_ctrls2.perBankRdBursts::15            4753                       # Per bank write bursts
system.mem_ctrls2.perBankWrBursts::0             3554                       # Per bank write bursts
system.mem_ctrls2.perBankWrBursts::1             3509                       # Per bank write bursts
system.mem_ctrls2.perBankWrBursts::2             3568                       # Per bank write bursts
system.mem_ctrls2.perBankWrBursts::3             3732                       # Per bank write bursts
system.mem_ctrls2.perBankWrBursts::4             3787                       # Per bank write bursts
system.mem_ctrls2.perBankWrBursts::5             4117                       # Per bank write bursts
system.mem_ctrls2.perBankWrBursts::6             3850                       # Per bank write bursts
system.mem_ctrls2.perBankWrBursts::7             4116                       # Per bank write bursts
system.mem_ctrls2.perBankWrBursts::8             3963                       # Per bank write bursts
system.mem_ctrls2.perBankWrBursts::9             4048                       # Per bank write bursts
system.mem_ctrls2.perBankWrBursts::10            3616                       # Per bank write bursts
system.mem_ctrls2.perBankWrBursts::11            3577                       # Per bank write bursts
system.mem_ctrls2.perBankWrBursts::12            3720                       # Per bank write bursts
system.mem_ctrls2.perBankWrBursts::13            3821                       # Per bank write bursts
system.mem_ctrls2.perBankWrBursts::14            3894                       # Per bank write bursts
system.mem_ctrls2.perBankWrBursts::15            3838                       # Per bank write bursts
system.mem_ctrls2.numRdRetry                        0                       # Number of times read queue was full causing retry
system.mem_ctrls2.numWrRetry                      122                       # Number of times write queue was full causing retry
system.mem_ctrls2.totGap                  38011065500                       # Total gap between requests
system.mem_ctrls2.readPktSize::0                    0                       # Read request sizes (log2)
system.mem_ctrls2.readPktSize::1                    0                       # Read request sizes (log2)
system.mem_ctrls2.readPktSize::2                    0                       # Read request sizes (log2)
system.mem_ctrls2.readPktSize::3                    0                       # Read request sizes (log2)
system.mem_ctrls2.readPktSize::4                    0                       # Read request sizes (log2)
system.mem_ctrls2.readPktSize::5                    0                       # Read request sizes (log2)
system.mem_ctrls2.readPktSize::6                76256                       # Read request sizes (log2)
system.mem_ctrls2.writePktSize::0                   0                       # Write request sizes (log2)
system.mem_ctrls2.writePktSize::1                   0                       # Write request sizes (log2)
system.mem_ctrls2.writePktSize::2                   0                       # Write request sizes (log2)
system.mem_ctrls2.writePktSize::3                   0                       # Write request sizes (log2)
system.mem_ctrls2.writePktSize::4                   0                       # Write request sizes (log2)
system.mem_ctrls2.writePktSize::5                   0                       # Write request sizes (log2)
system.mem_ctrls2.writePktSize::6               60710                       # Write request sizes (log2)
system.mem_ctrls2.rdQLenPdf::0                  59654                       # What read queue length does an incoming req see
system.mem_ctrls2.rdQLenPdf::1                  10020                       # What read queue length does an incoming req see
system.mem_ctrls2.rdQLenPdf::2                   3130                       # What read queue length does an incoming req see
system.mem_ctrls2.rdQLenPdf::3                   1396                       # What read queue length does an incoming req see
system.mem_ctrls2.rdQLenPdf::4                    724                       # What read queue length does an incoming req see
system.mem_ctrls2.rdQLenPdf::5                    439                       # What read queue length does an incoming req see
system.mem_ctrls2.rdQLenPdf::6                    283                       # What read queue length does an incoming req see
system.mem_ctrls2.rdQLenPdf::7                    147                       # What read queue length does an incoming req see
system.mem_ctrls2.rdQLenPdf::8                     95                       # What read queue length does an incoming req see
system.mem_ctrls2.rdQLenPdf::9                     70                       # What read queue length does an incoming req see
system.mem_ctrls2.rdQLenPdf::10                    51                       # What read queue length does an incoming req see
system.mem_ctrls2.rdQLenPdf::11                    38                       # What read queue length does an incoming req see
system.mem_ctrls2.rdQLenPdf::12                    36                       # What read queue length does an incoming req see
system.mem_ctrls2.rdQLenPdf::13                    28                       # What read queue length does an incoming req see
system.mem_ctrls2.rdQLenPdf::14                    22                       # What read queue length does an incoming req see
system.mem_ctrls2.rdQLenPdf::15                    19                       # What read queue length does an incoming req see
system.mem_ctrls2.rdQLenPdf::16                    14                       # What read queue length does an incoming req see
system.mem_ctrls2.rdQLenPdf::17                    13                       # What read queue length does an incoming req see
system.mem_ctrls2.rdQLenPdf::18                    12                       # What read queue length does an incoming req see
system.mem_ctrls2.rdQLenPdf::19                     8                       # What read queue length does an incoming req see
system.mem_ctrls2.rdQLenPdf::20                     8                       # What read queue length does an incoming req see
system.mem_ctrls2.rdQLenPdf::21                     7                       # What read queue length does an incoming req see
system.mem_ctrls2.rdQLenPdf::22                     5                       # What read queue length does an incoming req see
system.mem_ctrls2.rdQLenPdf::23                     5                       # What read queue length does an incoming req see
system.mem_ctrls2.rdQLenPdf::24                     4                       # What read queue length does an incoming req see
system.mem_ctrls2.rdQLenPdf::25                     4                       # What read queue length does an incoming req see
system.mem_ctrls2.rdQLenPdf::26                     4                       # What read queue length does an incoming req see
system.mem_ctrls2.rdQLenPdf::27                     2                       # What read queue length does an incoming req see
system.mem_ctrls2.rdQLenPdf::28                     2                       # What read queue length does an incoming req see
system.mem_ctrls2.rdQLenPdf::29                     0                       # What read queue length does an incoming req see
system.mem_ctrls2.rdQLenPdf::30                     0                       # What read queue length does an incoming req see
system.mem_ctrls2.rdQLenPdf::31                     0                       # What read queue length does an incoming req see
system.mem_ctrls2.wrQLenPdf::0                  11302                       # What write queue length does an incoming req see
system.mem_ctrls2.wrQLenPdf::1                  12358                       # What write queue length does an incoming req see
system.mem_ctrls2.wrQLenPdf::2                  12356                       # What write queue length does an incoming req see
system.mem_ctrls2.wrQLenPdf::3                  12095                       # What write queue length does an incoming req see
system.mem_ctrls2.wrQLenPdf::4                  11790                       # What write queue length does an incoming req see
system.mem_ctrls2.wrQLenPdf::5                    424                       # What write queue length does an incoming req see
system.mem_ctrls2.wrQLenPdf::6                    187                       # What write queue length does an incoming req see
system.mem_ctrls2.wrQLenPdf::7                    198                       # What write queue length does an incoming req see
system.mem_ctrls2.bytesPerActivate::samples        51016                       # Bytes accessed per row activation
system.mem_ctrls2.bytesPerActivate::mean   171.778579                       # Bytes accessed per row activation
system.mem_ctrls2.bytesPerActivate::gmean   121.569842                       # Bytes accessed per row activation
system.mem_ctrls2.bytesPerActivate::stdev   177.931669                       # Bytes accessed per row activation
system.mem_ctrls2.bytesPerActivate::0-127        25903     50.77%     50.77% # Bytes accessed per row activation
system.mem_ctrls2.bytesPerActivate::128-255        12587     24.67%     75.45% # Bytes accessed per row activation
system.mem_ctrls2.bytesPerActivate::256-383         7578     14.85%     90.30% # Bytes accessed per row activation
system.mem_ctrls2.bytesPerActivate::384-511         1898      3.72%     94.02% # Bytes accessed per row activation
system.mem_ctrls2.bytesPerActivate::512-639         1117      2.19%     96.21% # Bytes accessed per row activation
system.mem_ctrls2.bytesPerActivate::640-767          594      1.16%     97.38% # Bytes accessed per row activation
system.mem_ctrls2.bytesPerActivate::768-895          460      0.90%     98.28% # Bytes accessed per row activation
system.mem_ctrls2.bytesPerActivate::896-1023          288      0.56%     98.84% # Bytes accessed per row activation
system.mem_ctrls2.bytesPerActivate::1024-1151          591      1.16%    100.00% # Bytes accessed per row activation
system.mem_ctrls2.bytesPerActivate::total        51016                       # Bytes accessed per row activation
system.mem_ctrls2.rdPerTurnAround::samples        11320                       # Reads before turning the bus around for writes
system.mem_ctrls2.rdPerTurnAround::mean      6.734894                       # Reads before turning the bus around for writes
system.mem_ctrls2.rdPerTurnAround::stdev    29.986523                       # Reads before turning the bus around for writes
system.mem_ctrls2.rdPerTurnAround::0-127        11315     99.96%     99.96% # Reads before turning the bus around for writes
system.mem_ctrls2.rdPerTurnAround::128-255            3      0.03%     99.98% # Reads before turning the bus around for writes
system.mem_ctrls2.rdPerTurnAround::1152-1279            1      0.01%     99.99% # Reads before turning the bus around for writes
system.mem_ctrls2.rdPerTurnAround::2816-2943            1      0.01%    100.00% # Reads before turning the bus around for writes
system.mem_ctrls2.rdPerTurnAround::total        11320                       # Reads before turning the bus around for writes
system.mem_ctrls2.wrPerTurnAround::samples        11320                       # Writes before turning the bus around for reads
system.mem_ctrls2.wrPerTurnAround::mean      5.363074                       # Writes before turning the bus around for reads
system.mem_ctrls2.wrPerTurnAround::gmean     5.286829                       # Writes before turning the bus around for reads
system.mem_ctrls2.wrPerTurnAround::stdev     1.129239                       # Writes before turning the bus around for reads
system.mem_ctrls2.wrPerTurnAround::4-7          10840     95.76%     95.76% # Writes before turning the bus around for reads
system.mem_ctrls2.wrPerTurnAround::8-11           394      3.48%     99.24% # Writes before turning the bus around for reads
system.mem_ctrls2.wrPerTurnAround::12-15           63      0.56%     99.80% # Writes before turning the bus around for reads
system.mem_ctrls2.wrPerTurnAround::16-19           23      0.20%    100.00% # Writes before turning the bus around for reads
system.mem_ctrls2.wrPerTurnAround::total        11320                       # Writes before turning the bus around for reads
system.mem_ctrls2.totQLat                  1803287128                       # Total ticks spent queuing
system.mem_ctrls2.totMemAccLat             3232787128                       # Total ticks spent from burst creation until serviced by the DRAM
system.mem_ctrls2.totBusLat                 381200000                       # Total ticks spent in databus transfers
system.mem_ctrls2.avgQLat                    23652.77                       # Average queueing delay per DRAM burst
system.mem_ctrls2.avgBusLat                   5000.00                       # Average bus latency per DRAM burst
system.mem_ctrls2.avgMemAccLat               42402.77                       # Average memory access latency per DRAM burst
system.mem_ctrls2.avgRdBW                      128.37                       # Average DRAM read bandwidth in MiByte/s
system.mem_ctrls2.avgWrBW                      102.22                       # Average achieved write bandwidth in MiByte/s
system.mem_ctrls2.avgRdBWSys                   128.39                       # Average system read bandwidth in MiByte/s
system.mem_ctrls2.avgWrBWSys                   102.22                       # Average system write bandwidth in MiByte/s
system.mem_ctrls2.peakBW                     12800.00                       # Theoretical peak bandwidth in MiByte/s
system.mem_ctrls2.busUtil                        1.80                       # Data bus utilization in percentage
system.mem_ctrls2.busUtilRead                    1.00                       # Data bus utilization in percentage for reads
system.mem_ctrls2.busUtilWrite                   0.80                       # Data bus utilization in percentage for writes
system.mem_ctrls2.avgRdQLen                      1.08                       # Average read queue length when enqueuing
system.mem_ctrls2.avgWrQLen                      2.93                       # Average write queue length when enqueuing
system.mem_ctrls2.readRowHits                   52616                       # Number of row buffer hits during reads
system.mem_ctrls2.writeRowHits                  33308                       # Number of row buffer hits during writes
system.mem_ctrls2.readRowHitRate                69.01                       # Row buffer hit rate for reads
system.mem_ctrls2.writeRowHitRate               54.86                       # Row buffer hit rate for writes
system.mem_ctrls2.avgGap                    277521.91                       # Average gap between requests
system.mem_ctrls2.pageHitRate                   62.74                       # Row buffer hit rate, read and write combined
system.mem_ctrls2.memoryStateTime::IDLE    8863629500                       # Time in different power states
system.mem_ctrls2.memoryStateTime::REF     1269060000                       # Time in different power states
system.mem_ctrls2.memoryStateTime::PRE_PDN            0                       # Time in different power states
system.mem_ctrls2.memoryStateTime::ACT    27872270500                       # Time in different power states
system.mem_ctrls2.memoryStateTime::ACT_PDN            0                       # Time in different power states
system.mem_ctrls2.actEnergy::0              193112640                       # Energy for activate commands per rank (pJ)
system.mem_ctrls2.actEnergy::1              192515400                       # Energy for activate commands per rank (pJ)
system.mem_ctrls2.preEnergy::0              105369000                       # Energy for precharge commands per rank (pJ)
system.mem_ctrls2.preEnergy::1              105043125                       # Energy for precharge commands per rank (pJ)
system.mem_ctrls2.readEnergy::0             300417000                       # Energy for read commands per rank (pJ)
system.mem_ctrls2.readEnergy::1             294091200                       # Energy for read commands per rank (pJ)
system.mem_ctrls2.writeEnergy::0            195909840                       # Energy for write commands per rank (pJ)
system.mem_ctrls2.writeEnergy::1            197393760                       # Energy for write commands per rank (pJ)
system.mem_ctrls2.refreshEnergy::0         2482281360                       # Energy for refresh commands per rank (pJ)
system.mem_ctrls2.refreshEnergy::1         2482281360                       # Energy for refresh commands per rank (pJ)
system.mem_ctrls2.actBackEnergy::0        15045423030                       # Energy for active background per rank (pJ)
system.mem_ctrls2.actBackEnergy::1        14558724540                       # Energy for active background per rank (pJ)
system.mem_ctrls2.preBackEnergy::0         9605228250                       # Energy for precharge background per rank (pJ)
system.mem_ctrls2.preBackEnergy::1        10032156750                       # Energy for precharge background per rank (pJ)
system.mem_ctrls2.totalEnergy::0          27927741120                       # Total energy per rank (pJ)
system.mem_ctrls2.totalEnergy::1          27862206135                       # Total energy per rank (pJ)
system.mem_ctrls2.averagePower::0          734.844905                       # Core power per rank (mW)
system.mem_ctrls2.averagePower::1          733.120525                       # Core power per rank (mW)
system.mem_ctrls3.bytes_read::ruby.dir_cntrl3      4858752                       # Number of bytes read from this memory
system.mem_ctrls3.bytes_read::total           4858752                       # Number of bytes read from this memory
system.mem_ctrls3.bytes_written::ruby.dir_cntrl3      3880384                       # Number of bytes written to this memory
system.mem_ctrls3.bytes_written::total        3880384                       # Number of bytes written to this memory
system.mem_ctrls3.num_reads::ruby.dir_cntrl3        75918                       # Number of read requests responded to by this memory
system.mem_ctrls3.num_reads::total              75918                       # Number of read requests responded to by this memory
system.mem_ctrls3.num_writes::ruby.dir_cntrl3        60631                       # Number of write requests responded to by this memory
system.mem_ctrls3.num_writes::total             60631                       # Number of write requests responded to by this memory
system.mem_ctrls3.bw_read::ruby.dir_cntrl3    127823899                       # Total read bandwidth from this memory (bytes/s)
system.mem_ctrls3.bw_read::total            127823899                       # Total read bandwidth from this memory (bytes/s)
system.mem_ctrls3.bw_write::ruby.dir_cntrl3    102085024                       # Write bandwidth from this memory (bytes/s)
system.mem_ctrls3.bw_write::total           102085024                       # Write bandwidth from this memory (bytes/s)
system.mem_ctrls3.bw_total::ruby.dir_cntrl3    229908923                       # Total bandwidth to/from this memory (bytes/s)
system.mem_ctrls3.bw_total::total           229908923                       # Total bandwidth to/from this memory (bytes/s)
system.mem_ctrls3.readReqs                      75919                       # Number of read requests accepted
system.mem_ctrls3.writeReqs                     60631                       # Number of write requests accepted
system.mem_ctrls3.readBursts                    75919                       # Number of DRAM read bursts, including those serviced by the write queue
system.mem_ctrls3.writeBursts                   60631                       # Number of DRAM write bursts, including those merged in the write queue
system.mem_ctrls3.bytesReadDRAM               4858240                       # Total number of bytes read from DRAM
system.mem_ctrls3.bytesReadWrQ                    576                       # Total number of bytes read from write queue
system.mem_ctrls3.bytesWritten                3880384                       # Total number of bytes written to DRAM
system.mem_ctrls3.bytesReadSys                4858816                       # Total read bytes from the system interface side
system.mem_ctrls3.bytesWrittenSys             3880384                       # Total written bytes from the system interface side
system.mem_ctrls3.servicedByWrQ                     9                       # Number of DRAM read bursts serviced by the write queue
system.mem_ctrls3.mergedWrBursts                    0                       # Number of DRAM write bursts merged with an existing one
system.mem_ctrls3.neitherReadNorWriteReqs            0                       # Number of requests that are neither read nor write
system.mem_ctrls3.perBankRdBursts::0             4299                       # Per bank write bursts
system.mem_ctrls3.perBankRdBursts::1             4716                       # Per bank write bursts
system.mem_ctrls3.perBankRdBursts::2             4421                       # Per bank write bursts
system.mem_ctrls3.perBankRdBursts::3             4860                       # Per bank write bursts
system.mem_ctrls3.perBankRdBursts::4             4737                       # Per bank write bursts
system.mem_ctrls3.perBankRdBursts::5             5240                       # Per bank write bursts
system.mem_ctrls3.perBankRdBursts::6             4863                       # Per bank write bursts
system.mem_ctrls3.perBankRdBursts::7             5148                       # Per bank write bursts
system.mem_ctrls3.perBankRdBursts::8             4924                       # Per bank write bursts
system.mem_ctrls3.perBankRdBursts::9             5078                       # Per bank write bursts
system.mem_ctrls3.perBankRdBursts::10            4522                       # Per bank write bursts
system.mem_ctrls3.perBankRdBursts::11            4731                       # Per bank write bursts
system.mem_ctrls3.perBankRdBursts::12            4482                       # Per bank write bursts
system.mem_ctrls3.perBankRdBursts::13            4517                       # Per bank write bursts
system.mem_ctrls3.perBankRdBursts::14            4644                       # Per bank write bursts
system.mem_ctrls3.perBankRdBursts::15            4728                       # Per bank write bursts
system.mem_ctrls3.perBankWrBursts::0             3555                       # Per bank write bursts
system.mem_ctrls3.perBankWrBursts::1             3503                       # Per bank write bursts
system.mem_ctrls3.perBankWrBursts::2             3568                       # Per bank write bursts
system.mem_ctrls3.perBankWrBursts::3             3718                       # Per bank write bursts
system.mem_ctrls3.perBankWrBursts::4             3786                       # Per bank write bursts
system.mem_ctrls3.perBankWrBursts::5             4100                       # Per bank write bursts
system.mem_ctrls3.perBankWrBursts::6             3839                       # Per bank write bursts
system.mem_ctrls3.perBankWrBursts::7             4102                       # Per bank write bursts
system.mem_ctrls3.perBankWrBursts::8             3973                       # Per bank write bursts
system.mem_ctrls3.perBankWrBursts::9             4037                       # Per bank write bursts
system.mem_ctrls3.perBankWrBursts::10            3607                       # Per bank write bursts
system.mem_ctrls3.perBankWrBursts::11            3581                       # Per bank write bursts
system.mem_ctrls3.perBankWrBursts::12            3717                       # Per bank write bursts
system.mem_ctrls3.perBankWrBursts::13            3823                       # Per bank write bursts
system.mem_ctrls3.perBankWrBursts::14            3894                       # Per bank write bursts
system.mem_ctrls3.perBankWrBursts::15            3828                       # Per bank write bursts
system.mem_ctrls3.numRdRetry                        6                       # Number of times read queue was full causing retry
system.mem_ctrls3.numWrRetry                      125                       # Number of times write queue was full causing retry
system.mem_ctrls3.totGap                  38010553500                       # Total gap between requests
system.mem_ctrls3.readPktSize::0                    0                       # Read request sizes (log2)
system.mem_ctrls3.readPktSize::1                    0                       # Read request sizes (log2)
system.mem_ctrls3.readPktSize::2                    0                       # Read request sizes (log2)
system.mem_ctrls3.readPktSize::3                    0                       # Read request sizes (log2)
system.mem_ctrls3.readPktSize::4                    0                       # Read request sizes (log2)
system.mem_ctrls3.readPktSize::5                    0                       # Read request sizes (log2)
system.mem_ctrls3.readPktSize::6                75919                       # Read request sizes (log2)
system.mem_ctrls3.writePktSize::0                   0                       # Write request sizes (log2)
system.mem_ctrls3.writePktSize::1                   0                       # Write request sizes (log2)
system.mem_ctrls3.writePktSize::2                   0                       # Write request sizes (log2)
system.mem_ctrls3.writePktSize::3                   0                       # Write request sizes (log2)
system.mem_ctrls3.writePktSize::4                   0                       # Write request sizes (log2)
system.mem_ctrls3.writePktSize::5                   0                       # Write request sizes (log2)
system.mem_ctrls3.writePktSize::6               60631                       # Write request sizes (log2)
system.mem_ctrls3.rdQLenPdf::0                  59168                       # What read queue length does an incoming req see
system.mem_ctrls3.rdQLenPdf::1                  10140                       # What read queue length does an incoming req see
system.mem_ctrls3.rdQLenPdf::2                   3195                       # What read queue length does an incoming req see
system.mem_ctrls3.rdQLenPdf::3                   1364                       # What read queue length does an incoming req see
system.mem_ctrls3.rdQLenPdf::4                    722                       # What read queue length does an incoming req see
system.mem_ctrls3.rdQLenPdf::5                    445                       # What read queue length does an incoming req see
system.mem_ctrls3.rdQLenPdf::6                    275                       # What read queue length does an incoming req see
system.mem_ctrls3.rdQLenPdf::7                    148                       # What read queue length does an incoming req see
system.mem_ctrls3.rdQLenPdf::8                     83                       # What read queue length does an incoming req see
system.mem_ctrls3.rdQLenPdf::9                     53                       # What read queue length does an incoming req see
system.mem_ctrls3.rdQLenPdf::10                    41                       # What read queue length does an incoming req see
system.mem_ctrls3.rdQLenPdf::11                    33                       # What read queue length does an incoming req see
system.mem_ctrls3.rdQLenPdf::12                    27                       # What read queue length does an incoming req see
system.mem_ctrls3.rdQLenPdf::13                    26                       # What read queue length does an incoming req see
system.mem_ctrls3.rdQLenPdf::14                    29                       # What read queue length does an incoming req see
system.mem_ctrls3.rdQLenPdf::15                    33                       # What read queue length does an incoming req see
system.mem_ctrls3.rdQLenPdf::16                    19                       # What read queue length does an incoming req see
system.mem_ctrls3.rdQLenPdf::17                    14                       # What read queue length does an incoming req see
system.mem_ctrls3.rdQLenPdf::18                    13                       # What read queue length does an incoming req see
system.mem_ctrls3.rdQLenPdf::19                    12                       # What read queue length does an incoming req see
system.mem_ctrls3.rdQLenPdf::20                     9                       # What read queue length does an incoming req see
system.mem_ctrls3.rdQLenPdf::21                     9                       # What read queue length does an incoming req see
system.mem_ctrls3.rdQLenPdf::22                     8                       # What read queue length does an incoming req see
system.mem_ctrls3.rdQLenPdf::23                     6                       # What read queue length does an incoming req see
system.mem_ctrls3.rdQLenPdf::24                     7                       # What read queue length does an incoming req see
[...]
system.ruby.L2Cache_Controller.MT_IIB.WB_Data_clean::total        21359                      
system.ruby.L2Cache_Controller.MT_IIB.Unblock |          37      0.60%      0.60% |          75      1.22%      1.82% |         194      3.15%      4.97% |         190      3.09%      8.06% |          92      1.50%      9.56% |         202      3.28%     12.84% |         150      2.44%     15.28% |         294      4.78%     20.06% |         281      4.57%     24.62% |         206      3.35%     27.97% |         197      3.20%     31.17% |         197      3.20%     34.37% |         167      2.71%     37.09% |         239      3.88%     40.97% |         174      2.83%     43.80% |         106      1.72%     45.52% |         151      2.45%     47.98% |         269      4.37%     52.35% |         241      3.92%     56.27% |         210      3.41%     59.68% |         284      4.62%     64.29% |         178      2.89%     67.19% |         149      2.42%     69.61% |         168      2.73%     72.34% |         247      4.01%     76.35% |         152      2.47%     78.82% |         225      3.66%     82.48% |         250      4.06%     86.54% |         148      2.41%     88.95% |         263      4.27%     93.22% |         122      1.98%     95.21% |         295      4.79%    100.00%
system.ruby.L2Cache_Controller.MT_IIB.Unblock::total         6153                      
system.ruby.L2Cache_Controller.MT_IB.L1_GETS |           0      0.00%      0.00% |           0      0.00%      0.00% |           0      0.00%      0.00% |           0      0.00%      0.00% |           0      0.00%      0.00% |           0      0.00%      0.00% |           1     33.33%     33.33% |           0      0.00%     33.33% |           0      0.00%     33.33% |           0      0.00%     33.33% |           0      0.00%     33.33% |           0      0.00%     33.33% |           0      0.00%     33.33% |           0      0.00%     33.33% |           0      0.00%     33.33% |           0      0.00%     33.33% |           0      0.00%     33.33% |           0      0.00%     33.33% |           1     33.33%     66.67% |           0      0.00%     66.67% |           0      0.00%     66.67% |           0      0.00%     66.67% |           1     33.33%    100.00% |           0      0.00%    100.00% |           0      0.00%    100.00% |           0      0.00%    100.00% |           0      0.00%    100.00% |           0      0.00%    100.00% |           0      0.00%    100.00% |           0      0.00%    100.00% |           0      0.00%    100.00% |           0      0.00%    100.00%
system.ruby.L2Cache_Controller.MT_IB.L1_GETS::total            3                      
system.ruby.L2Cache_Controller.MT_IB.L1_GETX |           0      0.00%      0.00% |           0      0.00%      0.00% |           0      0.00%      0.00% |           1     50.00%     50.00% |           0      0.00%     50.00% |           0      0.00%     50.00% |           0      0.00%     50.00% |           0      0.00%     50.00% |           0      0.00%     50.00% |           0      0.00%     50.00% |           0      0.00%     50.00% |           0      0.00%     50.00% |           0      0.00%     50.00% |           1     50.00%    100.00% |           0      0.00%    100.00% |           0      0.00%    100.00% |           0      0.00%    100.00% |           0      0.00%    100.00% |           0      0.00%    100.00% |           0      0.00%    100.00% |           0      0.00%    100.00% |           0      0.00%    100.00% |           0      0.00%    100.00% |           0      0.00%    100.00% |           0      0.00%    100.00% |           0      0.00%    100.00% |           0      0.00%    100.00% |           0      0.00%    100.00% |           0      0.00%    100.00% |           0      0.00%    100.00% |           0      0.00%    100.00% |           0      0.00%    100.00%
system.ruby.L2Cache_Controller.MT_IB.L1_GETX::total            2                      
system.ruby.L2Cache_Controller.MT_IB.L1_UPGRADE |           0      0.00%      0.00% |           0      0.00%      0.00% |           0      0.00%      0.00% |           0      0.00%      0.00% |           0      0.00%      0.00% |           0      0.00%      0.00% |           0      0.00%      0.00% |           0      0.00%      0.00% |           0      0.00%      0.00% |           0      0.00%      0.00% |           0      0.00%      0.00% |           0      0.00%      0.00% |           1     33.33%     33.33% |           0      0.00%     33.33% |           1     33.33%     66.67% |           0      0.00%     66.67% |           0      0.00%     66.67% |           1     33.33%    100.00% |           0      0.00%    100.00% |           0      0.00%    100.00% |           0      0.00%    100.00% |           0      0.00%    100.00% |           0      0.00%    100.00% |           0      0.00%    100.00% |           0      0.00%    100.00% |           0      0.00%    100.00% |           0      0.00%    100.00% |           0      0.00%    100.00% |           0      0.00%    100.00% |           0      0.00%    100.00% |           0      0.00%    100.00% |           0      0.00%    100.00%
system.ruby.L2Cache_Controller.MT_IB.L1_UPGRADE::total            3                      
system.ruby.L2Cache_Controller.MT_IB.WB_Data |          34      0.59%      0.59% |          72      1.26%      1.85% |         174      3.04%      4.89% |         172      3.00%      7.89% |          85      1.48%      9.37% |         189      3.30%     12.67% |         140      2.44%     15.12% |         273      4.77%     19.88% |         267      4.66%     24.54% |         194      3.39%     27.93% |         179      3.12%     31.05% |         182      3.18%     34.23% |         157      2.74%     36.97% |         218      3.81%     40.78% |         164      2.86%     43.64% |          94      1.64%     45.28% |         139      2.43%     47.70% |         254      4.43%     52.14% |         226      3.94%     56.08% |         195      3.40%     59.49% |         258      4.50%     63.99% |         168      2.93%     66.92% |         143      2.50%     69.42% |         156      2.72%     72.14% |         234      4.08%     76.23% |         137      2.39%     78.62% |         216      3.77%     82.39% |         236      4.12%     86.51% |         137      2.39%     88.90% |         249      4.35%     93.24% |         115      2.01%     95.25% |         272      4.75%    100.00%
system.ruby.L2Cache_Controller.MT_IB.WB_Data::total         5729                      
system.ruby.L2Cache_Controller.MT_IB.WB_Data_clean |           3      0.71%      0.71% |           3      0.71%      1.42% |          20      4.72%      6.13% |          18      4.25%     10.38% |           7      1.65%     12.03% |          13      3.07%     15.09% |          10      2.36%     17.45% |          21      4.95%     22.41% |          14      3.30%     25.71% |          12      2.83%     28.54% |          18      4.25%     32.78% |          15      3.54%     36.32% |          10      2.36%     38.68% |          21      4.95%     43.63% |          10      2.36%     45.99% |          12      2.83%     48.82% |          12      2.83%     51.65% |          15      3.54%     55.19% |          15      3.54%     58.73% |          15      3.54%     62.26% |          26      6.13%     68.40% |          10      2.36%     70.75% |           6      1.42%     72.17% |          12      2.83%     75.00% |          13      3.07%     78.07% |          15      3.54%     81.60% |           9      2.12%     83.73% |          14      3.30%     87.03% |          11      2.59%     89.62% |          14      3.30%     92.92% |           7      1.65%     94.58% |          23      5.42%    100.00%
system.ruby.L2Cache_Controller.MT_IB.WB_Data_clean::total          424                      
system.ruby.L2Cache_Controller.MT_SB.L1_GETS |          29      3.06%      3.06% |          26      2.74%      5.80% |          33      3.48%      9.27% |          24      2.53%     11.80% |          30      3.16%     14.96% |          25      2.63%     17.60% |          26      2.74%     20.34% |          31      3.27%     23.60% |          31      3.27%     26.87% |          34      3.58%     30.45% |          30      3.16%     33.61% |          26      2.74%     36.35% |          25      2.63%     38.99% |          23      2.42%     41.41% |          36      3.79%     45.21% |          29      3.06%     48.26% |          30      3.16%     51.42% |          27      2.85%     54.27% |          36      3.79%     58.06% |          25      2.63%     60.70% |          29      3.06%     63.75% |          21      2.21%     65.96% |          33      3.48%     69.44% |          36      3.79%     73.23% |          28      2.95%     76.19% |          26      2.74%     78.93% |          34      3.58%     82.51% |          37      3.90%     86.41% |          42      4.43%     90.83% |          30      3.16%     93.99% |          27      2.85%     96.84% |          30      3.16%    100.00%
system.ruby.L2Cache_Controller.MT_SB.L1_GETS::total          949                      
system.ruby.L2Cache_Controller.MT_SB.L1_GETX |          18      4.17%      4.17% |          11      2.55%      6.71% |          15      3.47%     10.19% |          15      3.47%     13.66% |          14      3.24%     16.90% |          17      3.94%     20.83% |          17      3.94%     24.77% |          12      2.78%     27.55% |          11      2.55%     30.09% |          12      2.78%     32.87% |           8      1.85%     34.72% |          16      3.70%     38.43% |          10      2.31%     40.74% |          16      3.70%     44.44% |           9      2.08%     46.53% |          17      3.94%     50.46% |          13      3.01%     53.47% |          23      5.32%     58.80% |           6      1.39%     60.19% |          17      3.94%     64.12% |          13      3.01%     67.13% |          10      2.31%     69.44% |           9      2.08%     71.53% |          18      4.17%     75.69% |          10      2.31%     78.01% |          19      4.40%     82.41% |          15      3.47%     85.88% |          11      2.55%     88.43% |          16      3.70%     92.13% |          12      2.78%     94.91% |           8      1.85%     96.76% |          14      3.24%    100.00%
system.ruby.L2Cache_Controller.MT_SB.L1_GETX::total          432                      
system.ruby.L2Cache_Controller.MT_SB.L1_UPGRADE |          10      4.08%      4.08% |          12      4.90%      8.98% |           6      2.45%     11.43% |          10      4.08%     15.51% |           7      2.86%     18.37% |          13      5.31%     23.67% |           8      3.27%     26.94% |           6      2.45%     29.39% |           7      2.86%     32.24% |           7      2.86%     35.10% |           8      3.27%     38.37% |           7      2.86%     41.22% |           9      3.67%     44.90% |           7      2.86%     47.76% |           9      3.67%     51.43% |           6      2.45%     53.88% |           5      2.04%     55.92% |           7      2.86%     58.78% |          10      4.08%     62.86% |          11      4.49%     67.35% |           7      2.86%     70.20% |           6      2.45%     72.65% |           6      2.45%     75.10% |           3      1.22%     76.33% |          13      5.31%     81.63% |           9      3.67%     85.31% |           8      3.27%     88.57% |           8      3.27%     91.84% |           4      1.63%     93.47% |           8      3.27%     96.73% |           3      1.22%     97.96% |           5      2.04%    100.00%
system.ruby.L2Cache_Controller.MT_SB.L1_UPGRADE::total          245                      
system.ruby.L2Cache_Controller.MT_SB.L1_PUTX |           0      0.00%      0.00% |           0      0.00%      0.00% |           0      0.00%      0.00% |           0      0.00%      0.00% |           0      0.00%      0.00% |           0      0.00%      0.00% |           0      0.00%      0.00% |           0      0.00%      0.00% |           0      0.00%      0.00% |           0      0.00%      0.00% |           0      0.00%      0.00% |           0      0.00%      0.00% |           0      0.00%      0.00% |           0      0.00%      0.00% |           0      0.00%      0.00% |           0      0.00%      0.00% |           0      0.00%      0.00% |           0      0.00%      0.00% |           0      0.00%      0.00% |           0      0.00%      0.00% |           0      0.00%      0.00% |           0      0.00%      0.00% |           0      0.00%      0.00% |           1    100.00%    100.00% |           0      0.00%    100.00% |           0      0.00%    100.00% |           0      0.00%    100.00% |           0      0.00%    100.00% |           0      0.00%    100.00% |           0      0.00%    100.00% |           0      0.00%    100.00% |           0      0.00%    100.00%
system.ruby.L2Cache_Controller.MT_SB.L1_PUTX::total            1                      
system.ruby.L2Cache_Controller.MT_SB.Unblock |        7127      3.25%      3.25% |        6978      3.18%      6.43% |        6815      3.11%      9.54% |        6756      3.08%     12.62% |        7114      3.24%     15.86% |        6810      3.11%     18.97% |        6912      3.15%     22.12% |        6680      3.05%     25.17% |        6865      3.13%     28.30% |        6844      3.12%     31.42% |        6893      3.14%     34.56% |        6796      3.10%     37.66% |        6920      3.16%     40.81% |        6785      3.09%     43.91% |        6883      3.14%     47.04% |        6937      3.16%     50.21% |        6949      3.17%     53.38% |        6710      3.06%     56.44% |        6822      3.11%     59.55% |        6797      3.10%     62.64% |        6840      3.12%     65.76% |        6759      3.08%     68.85% |        6900      3.15%     71.99% |        6821      3.11%     75.10% |        6916      3.15%     78.26% |        6790      3.10%     81.35% |        6740      3.07%     84.42% |        6770      3.09%     87.51% |        7037      3.21%     90.72% |        6759      3.08%     93.80% |        6893      3.14%     96.94% |        6702      3.06%    100.00%
system.ruby.L2Cache_Controller.MT_SB.Unblock::total       219320                      
system.ruby.SimicsNetworkPortInterface_Controller.MessageSend |      808072     21.78%     21.78% |     1854990     50.00%     71.78% |      137864      3.72%     75.50% |      142223      3.83%     79.33% |      120877      3.26%     82.59% |      137460      3.71%     86.29% |      120447      3.25%     89.54% |      141605      3.82%     93.36% |      119559      3.22%     96.58% |      126883      3.42%    100.00% |           0      0.00%    100.00% |           0      0.00%    100.00% |           0      0.00%    100.00% |           0      0.00%    100.00% |           0      0.00%    100.00% |           0      0.00%    100.00% |           0      0.00%    100.00% |           0      0.00%    100.00% |           0      0.00%    100.00% |           0      0.00%    100.00% |           0      0.00%    100.00% |           0      0.00%    100.00% |           0      0.00%    100.00% |           0      0.00%    100.00% |           0      0.00%    100.00% |           0      0.00%    100.00% |           0      0.00%    100.00% |           0      0.00%    100.00% |           0      0.00%    100.00% |           0      0.00%    100.00% |           0      0.00%    100.00% |           0      0.00%    100.00%
system.ruby.SimicsNetworkPortInterface_Controller.MessageSend::total      3709980                      
system.ruby.SimicsNetworkPortInterface_Controller.MessageRecv |      808072     21.78%     21.78% |     1854990     50.00%     71.78% |      137864      3.72%     75.50% |      142223      3.83%     79.33% |      120877      3.26%     82.59% |      137460      3.71%     86.29% |      120447      3.25%     89.54% |      141605      3.82%     93.36% |      119559      3.22%     96.58% |      126883      3.42%    100.00% |           0      0.00%    100.00% |           0      0.00%    100.00% |           0      0.00%    100.00% |           0      0.00%    100.00% |           0      0.00%    100.00% |           0      0.00%    100.00% |           0      0.00%    100.00% |           0      0.00%    100.00% |           0      0.00%    100.00% |           0      0.00%    100.00% |           0      0.00%    100.00% |           0      0.00%    100.00% |           0      0.00%    100.00% |           0      0.00%    100.00% |           0      0.00%    100.00% |           0      0.00%    100.00% |           0      0.00%    100.00% |           0      0.00%    100.00% |           0      0.00%    100.00% |           0      0.00%    100.00% |           0      0.00%    100.00% |           0      0.00%    100.00%
system.ruby.SimicsNetworkPortInterface_Controller.MessageRecv::total      3709980                      
system.ruby.SimicsNetworkPortInterface_Controller.A.MessageSend |      808072     21.78%     21.78% |     1854990     50.00%     71.78% |      137864      3.72%     75.50% |      142223      3.83%     79.33% |      120877      3.26%     82.59% |      137460      3.71%     86.29% |      120447      3.25%     89.54% |      141605      3.82%     93.36% |      119559      3.22%     96.58% |      126883      3.42%    100.00% |           0      0.00%    100.00% |           0      0.00%    100.00% |           0      0.00%    100.00% |           0      0.00%    100.00% |           0      0.00%    100.00% |           0      0.00%    100.00% |           0      0.00%    100.00% |           0      0.00%    100.00% |           0      0.00%    100.00% |           0      0.00%    100.00% |           0      0.00%    100.00% |           0      0.00%    100.00% |           0      0.00%    100.00% |           0      0.00%    100.00% |           0      0.00%    100.00% |           0      0.00%    100.00% |           0      0.00%    100.00% |           0      0.00%    100.00% |           0      0.00%    100.00% |           0      0.00%    100.00% |           0      0.00%    100.00% |           0      0.00%    100.00%
system.ruby.SimicsNetworkPortInterface_Controller.A.MessageSend::total      3709980                      
system.ruby.SimicsNetworkPortInterface_Controller.A.MessageRecv |      808072     21.78%     21.78% |     1854990     50.00%     71.78% |      137864      3.72%     75.50% |      142223      3.83%     79.33% |      120877      3.26%     82.59% |      137460      3.71%     86.29% |      120447      3.25%     89.54% |      141605      3.82%     93.36% |      119559      3.22%     96.58% |      126883      3.42%    100.00% |           0      0.00%    100.00% |           0      0.00%    100.00% |           0      0.00%    100.00% |           0      0.00%    100.00% |           0      0.00%    100.00% |           0      0.00%    100.00% |           0      0.00%    100.00% |           0      0.00%    100.00% |           0      0.00%    100.00% |           0      0.00%    100.00% |           0      0.00%    100.00% |           0      0.00%    100.00% |           0      0.00%    100.00% |           0      0.00%    100.00% |           0      0.00%    100.00% |           0      0.00%    100.00% |           0      0.00%    100.00% |           0      0.00%    100.00% |           0      0.00%    100.00% |           0      0.00%    100.00% |           0      0.00%    100.00% |           0      0.00%    100.00%
system.ruby.SimicsNetworkPortInterface_Controller.A.MessageRecv::total      3709980                      
system.switch_cpus.kern.inst.arm                    0                       # number of arm instructions executed
system.switch_cpus.kern.inst.quiesce                0                       # number of quiesce instructions executed

---------- End Simulation Statistics   ----------
