
---------- Begin Simulation Statistics ----------
sim_seconds                                  0.124106                       # Number of seconds simulated
sim_ticks                                124106322500                       # Number of ticks simulated
final_tick                               5300274401000                       # Number of ticks from beginning of simulation (restored from checkpoints and never reset)
sim_freq                                 1000000000000                       # Frequency of simulated ticks
host_inst_rate                                  95244                       # Simulator instruction rate (inst/s)
host_op_rate                                   154936                       # Simulator op (including micro ops) rate (op/s)
host_tick_rate                               97984819                       # Simulator tick rate (ticks/s)
host_mem_usage                                4815072                       # Number of bytes of host memory used
host_seconds                                  1266.59                       # Real time elapsed on the host
sim_insts                                   120635130                       # Number of instructions simulated
sim_ops                                     196239871                       # Number of ops (including micro ops) simulated
system.voltage_domain.voltage                       1                       # Voltage in Volts
system.clk_domain.clock                           500                       # Clock period in ticks
system.mem_ctrls0.bytes_read::ruby.dir_cntrl0     14071424                       # Number of bytes read from this memory
system.mem_ctrls0.bytes_read::total          14071424                       # Number of bytes read from this memory
system.mem_ctrls0.bytes_written::ruby.dir_cntrl0      4014080                       # Number of bytes written to this memory
system.mem_ctrls0.bytes_written::total        4014080                       # Number of bytes written to this memory
system.mem_ctrls0.num_reads::ruby.dir_cntrl0       219866                       # Number of read requests responded to by this memory
system.mem_ctrls0.num_reads::total             219866                       # Number of read requests responded to by this memory
system.mem_ctrls0.num_writes::ruby.dir_cntrl0        62720                       # Number of write requests responded to by this memory
system.mem_ctrls0.num_writes::total             62720                       # Number of write requests responded to by this memory
system.mem_ctrls0.bw_read::ruby.dir_cntrl0    113382008                       # Total read bandwidth from this memory (bytes/s)
system.mem_ctrls0.bw_read::total            113382008                       # Total read bandwidth from this memory (bytes/s)
system.mem_ctrls0.bw_write::ruby.dir_cntrl0     32343880                       # Write bandwidth from this memory (bytes/s)
system.mem_ctrls0.bw_write::total            32343880                       # Write bandwidth from this memory (bytes/s)
system.mem_ctrls0.bw_total::ruby.dir_cntrl0    145725888                       # Total bandwidth to/from this memory (bytes/s)
system.mem_ctrls0.bw_total::total           145725888                       # Total bandwidth to/from this memory (bytes/s)
system.mem_ctrls0.readReqs                     219866                       # Number of read requests accepted
system.mem_ctrls0.writeReqs                     62720                       # Number of write requests accepted
system.mem_ctrls0.readBursts                   219866                       # Number of DRAM read bursts, including those serviced by the write queue
system.mem_ctrls0.writeBursts                   62720                       # Number of DRAM write bursts, including those merged in the write queue
system.mem_ctrls0.bytesReadDRAM              14069312                       # Total number of bytes read from DRAM
system.mem_ctrls0.bytesReadWrQ                   2112                       # Total number of bytes read from write queue
system.mem_ctrls0.bytesWritten                4013824                       # Total number of bytes written to DRAM
system.mem_ctrls0.bytesReadSys               14071424                       # Total read bytes from the system interface side
system.mem_ctrls0.bytesWrittenSys             4014080                       # Total written bytes from the system interface side
system.mem_ctrls0.servicedByWrQ                    33                       # Number of DRAM read bursts serviced by the write queue
system.mem_ctrls0.mergedWrBursts                    0                       # Number of DRAM write bursts merged with an existing one
system.mem_ctrls0.neitherReadNorWriteReqs            0                       # Number of requests that are neither read nor write
system.mem_ctrls0.perBankRdBursts::0            13464                       # Per bank write bursts
system.mem_ctrls0.perBankRdBursts::1            14092                       # Per bank write bursts
system.mem_ctrls0.perBankRdBursts::2            13748                       # Per bank write bursts
system.mem_ctrls0.perBankRdBursts::3            14064                       # Per bank write bursts
system.mem_ctrls0.perBankRdBursts::4            13730                       # Per bank write bursts
system.mem_ctrls0.perBankRdBursts::5            14282                       # Per bank write bursts
system.mem_ctrls0.perBankRdBursts::6            13786                       # Per bank write bursts
system.mem_ctrls0.perBankRdBursts::7            13701                       # Per bank write bursts
system.mem_ctrls0.perBankRdBursts::8            13645                       # Per bank write bursts
system.mem_ctrls0.perBankRdBursts::9            13924                       # Per bank write bursts
system.mem_ctrls0.perBankRdBursts::10           13678                       # Per bank write bursts
system.mem_ctrls0.perBankRdBursts::11           13840                       # Per bank write bursts
system.mem_ctrls0.perBankRdBursts::12           13387                       # Per bank write bursts
system.mem_ctrls0.perBankRdBursts::13           13315                       # Per bank write bursts
system.mem_ctrls0.perBankRdBursts::14           13597                       # Per bank write bursts
system.mem_ctrls0.perBankRdBursts::15           13580                       # Per bank write bursts
system.mem_ctrls0.perBankWrBursts::0             3854                       # Per bank write bursts
system.mem_ctrls0.perBankWrBursts::1             3936                       # Per bank write bursts
system.mem_ctrls0.perBankWrBursts::2             3908                       # Per bank write bursts
system.mem_ctrls0.perBankWrBursts::3             4133                       # Per bank write bursts
system.mem_ctrls0.perBankWrBursts::4             3923                       # Per bank write bursts
system.mem_ctrls0.perBankWrBursts::5             4077                       # Per bank write bursts
system.mem_ctrls0.perBankWrBursts::6             3987                       # Per bank write bursts
system.mem_ctrls0.perBankWrBursts::7             3968                       # Per bank write bursts
system.mem_ctrls0.perBankWrBursts::8             3819                       # Per bank write bursts
system.mem_ctrls0.perBankWrBursts::9             4095                       # Per bank write bursts
system.mem_ctrls0.perBankWrBursts::10            3828                       # Per bank write bursts
system.mem_ctrls0.perBankWrBursts::11            3792                       # Per bank write bursts
system.mem_ctrls0.perBankWrBursts::12            3724                       # Per bank write bursts
system.mem_ctrls0.perBankWrBursts::13            3770                       # Per bank write bursts
system.mem_ctrls0.perBankWrBursts::14            4024                       # Per bank write bursts
system.mem_ctrls0.perBankWrBursts::15            3878                       # Per bank write bursts
system.mem_ctrls0.numRdRetry                        0                       # Number of times read queue was full causing retry
system.mem_ctrls0.numWrRetry                        0                       # Number of times write queue was full causing retry
system.mem_ctrls0.totGap                 124105831000                       # Total gap between requests
system.mem_ctrls0.readPktSize::0                    0                       # Read request sizes (log2)
system.mem_ctrls0.readPktSize::1                    0                       # Read request sizes (log2)
system.mem_ctrls0.readPktSize::2                    0                       # Read request sizes (log2)
system.mem_ctrls0.readPktSize::3                    0                       # Read request sizes (log2)
system.mem_ctrls0.readPktSize::4                    0                       # Read request sizes (log2)
system.mem_ctrls0.readPktSize::5                    0                       # Read request sizes (log2)
system.mem_ctrls0.readPktSize::6               219866                       # Read request sizes (log2)
system.mem_ctrls0.writePktSize::0                   0                       # Write request sizes (log2)
system.mem_ctrls0.writePktSize::1                   0                       # Write request sizes (log2)
system.mem_ctrls0.writePktSize::2                   0                       # Write request sizes (log2)
system.mem_ctrls0.writePktSize::3                   0                       # Write request sizes (log2)
system.mem_ctrls0.writePktSize::4                   0                       # Write request sizes (log2)
system.mem_ctrls0.writePktSize::5                   0                       # Write request sizes (log2)
system.mem_ctrls0.writePktSize::6               62720                       # Write request sizes (log2)
system.mem_ctrls0.rdQLenPdf::0                 218756                       # What read queue length does an incoming req see
system.mem_ctrls0.rdQLenPdf::1                    868                       # What read queue length does an incoming req see
system.mem_ctrls0.rdQLenPdf::2                    124                       # What read queue length does an incoming req see
system.mem_ctrls0.rdQLenPdf::3                     39                       # What read queue length does an incoming req see
system.mem_ctrls0.rdQLenPdf::4                     18                       # What read queue length does an incoming req see
system.mem_ctrls0.rdQLenPdf::5                      8                       # What read queue length does an incoming req see
system.mem_ctrls0.rdQLenPdf::6                      8                       # What read queue length does an incoming req see
system.mem_ctrls0.rdQLenPdf::7                      4                       # What read queue length does an incoming req see
system.mem_ctrls0.rdQLenPdf::8                      2                       # What read queue length does an incoming req see
system.mem_ctrls0.rdQLenPdf::9                      3                       # What read queue length does an incoming req see
system.mem_ctrls0.rdQLenPdf::10                     1                       # What read queue length does an incoming req see
system.mem_ctrls0.rdQLenPdf::11                     1                       # What read queue length does an incoming req see
system.mem_ctrls0.rdQLenPdf::12                     1                       # What read queue length does an incoming req see
system.mem_ctrls0.rdQLenPdf::13                     0                       # What read queue length does an incoming req see
system.mem_ctrls0.rdQLenPdf::14                     0                       # What read queue length does an incoming req see
system.mem_ctrls0.rdQLenPdf::15                     0                       # What read queue length does an incoming req see
system.mem_ctrls0.rdQLenPdf::16                     0                       # What read queue length does an incoming req see
system.mem_ctrls0.rdQLenPdf::17                     0                       # What read queue length does an incoming req see
system.mem_ctrls0.rdQLenPdf::18                     0                       # What read queue length does an incoming req see
system.mem_ctrls0.rdQLenPdf::19                     0                       # What read queue length does an incoming req see
system.mem_ctrls0.rdQLenPdf::20                     0                       # What read queue length does an incoming req see
system.mem_ctrls0.rdQLenPdf::21                     0                       # What read queue length does an incoming req see
system.mem_ctrls0.rdQLenPdf::22                     0                       # What read queue length does an incoming req see
system.mem_ctrls0.rdQLenPdf::23                     0                       # What read queue length does an incoming req see
system.mem_ctrls0.rdQLenPdf::24                     0                       # What read queue length does an incoming req see
system.mem_ctrls0.rdQLenPdf::25                     0                       # What read queue length does an incoming req see
system.mem_ctrls0.rdQLenPdf::26                     0                       # What read queue length does an incoming req see
system.mem_ctrls0.rdQLenPdf::27                     0                       # What read queue length does an incoming req see
system.mem_ctrls0.rdQLenPdf::28                     0                       # What read queue length does an incoming req see
system.mem_ctrls0.rdQLenPdf::29                     0                       # What read queue length does an incoming req see
system.mem_ctrls0.rdQLenPdf::30                     0                       # What read queue length does an incoming req see
system.mem_ctrls0.rdQLenPdf::31                     0                       # What read queue length does an incoming req see
system.mem_ctrls0.wrQLenPdf::0                  12507                       # What write queue length does an incoming req see
system.mem_ctrls0.wrQLenPdf::1                  12550                       # What write queue length does an incoming req see
system.mem_ctrls0.wrQLenPdf::2                  12547                       # What write queue length does an incoming req see
system.mem_ctrls0.wrQLenPdf::3                  12531                       # What write queue length does an incoming req see
system.mem_ctrls0.wrQLenPdf::4                  12527                       # What write queue length does an incoming req see
system.mem_ctrls0.wrQLenPdf::5                     46                       # What write queue length does an incoming req see
system.mem_ctrls0.wrQLenPdf::6                      7                       # What write queue length does an incoming req see
system.mem_ctrls0.wrQLenPdf::7                      5                       # What write queue length does an incoming req see
system.mem_ctrls0.bytesPerActivate::samples        63617                       # Bytes accessed per row activation
system.mem_ctrls0.bytesPerActivate::mean   284.246035                       # Bytes accessed per row activation
system.mem_ctrls0.bytesPerActivate::gmean   189.980249                       # Bytes accessed per row activation
system.mem_ctrls0.bytesPerActivate::stdev   277.166854                       # Bytes accessed per row activation
system.mem_ctrls0.bytesPerActivate::0-127        17819     28.01%     28.01% # Bytes accessed per row activation
system.mem_ctrls0.bytesPerActivate::128-255        16896     26.56%     54.57% # Bytes accessed per row activation
system.mem_ctrls0.bytesPerActivate::256-383        16414     25.80%     80.37% # Bytes accessed per row activation
system.mem_ctrls0.bytesPerActivate::384-511         2555      4.02%     84.39% # Bytes accessed per row activation
system.mem_ctrls0.bytesPerActivate::512-639         1821      2.86%     87.25% # Bytes accessed per row activation
system.mem_ctrls0.bytesPerActivate::640-767         1250      1.96%     89.21% # Bytes accessed per row activation
system.mem_ctrls0.bytesPerActivate::768-895         1068      1.68%     90.89% # Bytes accessed per row activation
system.mem_ctrls0.bytesPerActivate::896-1023          893      1.40%     92.30% # Bytes accessed per row activation
system.mem_ctrls0.bytesPerActivate::1024-1151         4901      7.70%    100.00% # Bytes accessed per row activation
system.mem_ctrls0.bytesPerActivate::total        63617                       # Bytes accessed per row activation
system.mem_ctrls0.rdPerTurnAround::samples        12506                       # Reads before turning the bus around for writes
system.mem_ctrls0.rdPerTurnAround::mean     17.406765                       # Reads before turning the bus around for writes
system.mem_ctrls0.rdPerTurnAround::stdev    85.518321                       # Reads before turning the bus around for writes
system.mem_ctrls0.rdPerTurnAround::0-127        12199     97.55%     97.55% # Reads before turning the bus around for writes
system.mem_ctrls0.rdPerTurnAround::128-255           63      0.50%     98.05% # Reads before turning the bus around for writes
system.mem_ctrls0.rdPerTurnAround::256-383           50      0.40%     98.45% # Reads before turning the bus around for writes
system.mem_ctrls0.rdPerTurnAround::384-511           29      0.23%     98.68% # Reads before turning the bus around for writes
system.mem_ctrls0.rdPerTurnAround::512-639          151      1.21%     99.89% # Reads before turning the bus around for writes
system.mem_ctrls0.rdPerTurnAround::640-767            3      0.02%     99.91% # Reads before turning the bus around for writes
system.mem_ctrls0.rdPerTurnAround::768-895            3      0.02%     99.94% # Reads before turning the bus around for writes
system.mem_ctrls0.rdPerTurnAround::1024-1151            2      0.02%     99.95% # Reads before turning the bus around for writes
system.mem_ctrls0.rdPerTurnAround::1152-1279            1      0.01%     99.96% # Reads before turning the bus around for writes
system.mem_ctrls0.rdPerTurnAround::1408-1535            2      0.02%     99.98% # Reads before turning the bus around for writes
system.mem_ctrls0.rdPerTurnAround::1664-1791            1      0.01%     99.98% # Reads before turning the bus around for writes
system.mem_ctrls0.rdPerTurnAround::1792-1919            1      0.01%     99.99% # Reads before turning the bus around for writes
system.mem_ctrls0.rdPerTurnAround::3968-4095            1      0.01%    100.00% # Reads before turning the bus around for writes
system.mem_ctrls0.rdPerTurnAround::total        12506                       # Reads before turning the bus around for writes
system.mem_ctrls0.wrPerTurnAround::samples        12506                       # Writes before turning the bus around for reads
system.mem_ctrls0.wrPerTurnAround::mean      5.014873                       # Writes before turning the bus around for reads
system.mem_ctrls0.wrPerTurnAround::gmean     5.012321                       # Writes before turning the bus around for reads
system.mem_ctrls0.wrPerTurnAround::stdev     0.196579                       # Writes before turning the bus around for reads
system.mem_ctrls0.wrPerTurnAround::4-5          12381     99.00%     99.00% # Writes before turning the bus around for reads
system.mem_ctrls0.wrPerTurnAround::6-7            112      0.90%     99.90% # Writes before turning the bus around for reads
system.mem_ctrls0.wrPerTurnAround::8-9              8      0.06%     99.96% # Writes before turning the bus around for reads
system.mem_ctrls0.wrPerTurnAround::10-11            3      0.02%     99.98% # Writes before turning the bus around for reads
system.mem_ctrls0.wrPerTurnAround::12-13            1      0.01%     99.99% # Writes before turning the bus around for reads
system.mem_ctrls0.wrPerTurnAround::14-15            1      0.01%    100.00% # Writes before turning the bus around for reads
system.mem_ctrls0.wrPerTurnAround::total        12506                       # Writes before turning the bus around for reads
system.mem_ctrls0.totQLat                  1489828750                       # Total ticks spent queuing
system.mem_ctrls0.totMemAccLat             5611697500                       # Total ticks spent from burst creation until serviced by the DRAM
system.mem_ctrls0.totBusLat                1099165000                       # Total ticks spent in databus transfers
system.mem_ctrls0.avgQLat                     6777.09                       # Average queueing delay per DRAM burst
system.mem_ctrls0.avgBusLat                   5000.00                       # Average bus latency per DRAM burst
system.mem_ctrls0.avgMemAccLat               25527.09                       # Average memory access latency per DRAM burst
system.mem_ctrls0.avgRdBW                      113.36                       # Average DRAM read bandwidth in MiByte/s
system.mem_ctrls0.avgWrBW                       32.34                       # Average achieved write bandwidth in MiByte/s
system.mem_ctrls0.avgRdBWSys                   113.38                       # Average system read bandwidth in MiByte/s
system.mem_ctrls0.avgWrBWSys                    32.34                       # Average system write bandwidth in MiByte/s
system.mem_ctrls0.peakBW                     12800.00                       # Theoretical peak bandwidth in MiByte/s
system.mem_ctrls0.busUtil                        1.14                       # Data bus utilization in percentage
system.mem_ctrls0.busUtilRead                    0.89                       # Data bus utilization in percentage for reads
system.mem_ctrls0.busUtilWrite                   0.25                       # Data bus utilization in percentage for writes
system.mem_ctrls0.avgRdQLen                      1.01                       # Average read queue length when enqueuing
system.mem_ctrls0.avgWrQLen                      2.92                       # Average write queue length when enqueuing
system.mem_ctrls0.readRowHits                  177047                       # Number of row buffer hits during reads
system.mem_ctrls0.writeRowHits                  41883                       # Number of row buffer hits during writes
system.mem_ctrls0.readRowHitRate                80.54                       # Row buffer hit rate for reads
system.mem_ctrls0.writeRowHitRate               66.78                       # Row buffer hit rate for writes
system.mem_ctrls0.avgGap                    439178.98                       # Average gap between requests
system.mem_ctrls0.pageHitRate                   77.48                       # Row buffer hit rate, read and write combined
system.mem_ctrls0.memoryStateTime::IDLE   14841753000                       # Time in different power states
system.mem_ctrls0.memoryStateTime::REF     4144140000                       # Time in different power states
system.mem_ctrls0.memoryStateTime::PRE_PDN            0                       # Time in different power states
system.mem_ctrls0.memoryStateTime::ACT   105119419500                       # Time in different power states
system.mem_ctrls0.memoryStateTime::ACT_PDN            0                       # Time in different power states
system.mem_ctrls0.actEnergy::0              246335040                       # Energy for activate commands per rank (pJ)
system.mem_ctrls0.actEnergy::1              234609480                       # Energy for activate commands per rank (pJ)
system.mem_ctrls0.preEnergy::0              134409000                       # Energy for precharge commands per rank (pJ)
system.mem_ctrls0.preEnergy::1              128011125                       # Energy for precharge commands per rank (pJ)
system.mem_ctrls0.readEnergy::0             864754800                       # Energy for read commands per rank (pJ)
system.mem_ctrls0.readEnergy::1             849911400                       # Energy for read commands per rank (pJ)
system.mem_ctrls0.writeEnergy::0            205973280                       # Energy for write commands per rank (pJ)
system.mem_ctrls0.writeEnergy::1            200426400                       # Energy for write commands per rank (pJ)
system.mem_ctrls0.refreshEnergy::0         8105937840                       # Energy for refresh commands per rank (pJ)
system.mem_ctrls0.refreshEnergy::1         8105937840                       # Energy for refresh commands per rank (pJ)
system.mem_ctrls0.actBackEnergy::0        47822059215                       # Energy for active background per rank (pJ)
system.mem_ctrls0.actBackEnergy::1        46954884015                       # Energy for active background per rank (pJ)
system.mem_ctrls0.preBackEnergy::0        32514004500                       # Energy for precharge background per rank (pJ)
system.mem_ctrls0.preBackEnergy::1        33274684500                       # Energy for precharge background per rank (pJ)
system.mem_ctrls0.totalEnergy::0          89893473675                       # Total energy per rank (pJ)
system.mem_ctrls0.totalEnergy::1          89748464760                       # Total energy per rank (pJ)
system.mem_ctrls0.averagePower::0          724.332277                       # Core power per rank (mW)
system.mem_ctrls0.averagePower::1          723.163843                       # Core power per rank (mW)
system.mem_ctrls1.bytes_read::ruby.dir_cntrl1     13889984                       # Number of bytes read from this memory
system.mem_ctrls1.bytes_read::total          13889984                       # Number of bytes read from this memory
system.mem_ctrls1.bytes_written::ruby.dir_cntrl1      3845760                       # Number of bytes written to this memory
system.mem_ctrls1.bytes_written::total        3845760                       # Number of bytes written to this memory
system.mem_ctrls1.num_reads::ruby.dir_cntrl1       217031                       # Number of read requests responded to by this memory
system.mem_ctrls1.num_reads::total             217031                       # Number of read requests responded to by this memory
system.mem_ctrls1.num_writes::ruby.dir_cntrl1        60090                       # Number of write requests responded to by this memory
system.mem_ctrls1.num_writes::total             60090                       # Number of write requests responded to by this memory
system.mem_ctrls1.bw_read::ruby.dir_cntrl1    111920035                       # Total read bandwidth from this memory (bytes/s)
system.mem_ctrls1.bw_read::total            111920035                       # Total read bandwidth from this memory (bytes/s)
system.mem_ctrls1.bw_write::ruby.dir_cntrl1     30987624                       # Write bandwidth from this memory (bytes/s)
system.mem_ctrls1.bw_write::total            30987624                       # Write bandwidth from this memory (bytes/s)
system.mem_ctrls1.bw_total::ruby.dir_cntrl1    142907659                       # Total bandwidth to/from this memory (bytes/s)
system.mem_ctrls1.bw_total::total           142907659                       # Total bandwidth to/from this memory (bytes/s)
system.mem_ctrls1.readReqs                     217031                       # Number of read requests accepted
system.mem_ctrls1.writeReqs                     60090                       # Number of write requests accepted
system.mem_ctrls1.readBursts                   217031                       # Number of DRAM read bursts, including those serviced by the write queue
system.mem_ctrls1.writeBursts                   60090                       # Number of DRAM write bursts, including those merged in the write queue
system.mem_ctrls1.bytesReadDRAM              13888128                       # Total number of bytes read from DRAM
system.mem_ctrls1.bytesReadWrQ                   1856                       # Total number of bytes read from write queue
system.mem_ctrls1.bytesWritten                3845760                       # Total number of bytes written to DRAM
system.mem_ctrls1.bytesReadSys               13889984                       # Total read bytes from the system interface side
system.mem_ctrls1.bytesWrittenSys             3845760                       # Total written bytes from the system interface side
system.mem_ctrls1.servicedByWrQ                    29                       # Number of DRAM read bursts serviced by the write queue
system.mem_ctrls1.mergedWrBursts                    0                       # Number of DRAM write bursts merged with an existing one
system.mem_ctrls1.neitherReadNorWriteReqs            0                       # Number of requests that are neither read nor write
system.mem_ctrls1.perBankRdBursts::0            13293                       # Per bank write bursts
system.mem_ctrls1.perBankRdBursts::1            13924                       # Per bank write bursts
system.mem_ctrls1.perBankRdBursts::2            13599                       # Per bank write bursts
system.mem_ctrls1.perBankRdBursts::3            13893                       # Per bank write bursts
system.mem_ctrls1.perBankRdBursts::4            13586                       # Per bank write bursts
system.mem_ctrls1.perBankRdBursts::5            14132                       # Per bank write bursts
system.mem_ctrls1.perBankRdBursts::6            13593                       # Per bank write bursts
system.mem_ctrls1.perBankRdBursts::7            13539                       # Per bank write bursts
system.mem_ctrls1.perBankRdBursts::8            13491                       # Per bank write bursts
system.mem_ctrls1.perBankRdBursts::9            13747                       # Per bank write bursts
system.mem_ctrls1.perBankRdBursts::10           13471                       # Per bank write bursts
system.mem_ctrls1.perBankRdBursts::11           13659                       # Per bank write bursts
system.mem_ctrls1.perBankRdBursts::12           13211                       # Per bank write bursts
system.mem_ctrls1.perBankRdBursts::13           13133                       # Per bank write bursts
system.mem_ctrls1.perBankRdBursts::14           13297                       # Per bank write bursts
system.mem_ctrls1.perBankRdBursts::15           13434                       # Per bank write bursts
system.mem_ctrls1.perBankWrBursts::0             3696                       # Per bank write bursts
system.mem_ctrls1.perBankWrBursts::1             3783                       # Per bank write bursts
system.mem_ctrls1.perBankWrBursts::2             3808                       # Per bank write bursts
system.mem_ctrls1.perBankWrBursts::3             3979                       # Per bank write bursts
system.mem_ctrls1.perBankWrBursts::4             3767                       # Per bank write bursts
system.mem_ctrls1.perBankWrBursts::5             3929                       # Per bank write bursts
system.mem_ctrls1.perBankWrBursts::6             3807                       # Per bank write bursts
system.mem_ctrls1.perBankWrBursts::7             3791                       # Per bank write bursts
system.mem_ctrls1.perBankWrBursts::8             3663                       # Per bank write bursts
system.mem_ctrls1.perBankWrBursts::9             3896                       # Per bank write bursts
system.mem_ctrls1.perBankWrBursts::10            3684                       # Per bank write bursts
system.mem_ctrls1.perBankWrBursts::11            3615                       # Per bank write bursts
system.mem_ctrls1.perBankWrBursts::12            3566                       # Per bank write bursts
system.mem_ctrls1.perBankWrBursts::13            3597                       # Per bank write bursts
system.mem_ctrls1.perBankWrBursts::14            3797                       # Per bank write bursts
system.mem_ctrls1.perBankWrBursts::15            3712                       # Per bank write bursts
system.mem_ctrls1.numRdRetry                        0                       # Number of times read queue was full causing retry
system.mem_ctrls1.numWrRetry                        1                       # Number of times write queue was full causing retry
system.mem_ctrls1.totGap                 124105572000                       # Total gap between requests
system.mem_ctrls1.readPktSize::0                    0                       # Read request sizes (log2)
system.mem_ctrls1.readPktSize::1                    0                       # Read request sizes (log2)
system.mem_ctrls1.readPktSize::2                    0                       # Read request sizes (log2)
system.mem_ctrls1.readPktSize::3                    0                       # Read request sizes (log2)
system.mem_ctrls1.readPktSize::4                    0                       # Read request sizes (log2)
system.mem_ctrls1.readPktSize::5                    0                       # Read request sizes (log2)
system.mem_ctrls1.readPktSize::6               217031                       # Read request sizes (log2)
system.mem_ctrls1.writePktSize::0                   0                       # Write request sizes (log2)
system.mem_ctrls1.writePktSize::1                   0                       # Write request sizes (log2)
system.mem_ctrls1.writePktSize::2                   0                       # Write request sizes (log2)
system.mem_ctrls1.writePktSize::3                   0                       # Write request sizes (log2)
system.mem_ctrls1.writePktSize::4                   0                       # Write request sizes (log2)
system.mem_ctrls1.writePktSize::5                   0                       # Write request sizes (log2)
system.mem_ctrls1.writePktSize::6               60090                       # Write request sizes (log2)
system.mem_ctrls1.rdQLenPdf::0                 215796                       # What read queue length does an incoming req see
system.mem_ctrls1.rdQLenPdf::1                   1033                       # What read queue length does an incoming req see
system.mem_ctrls1.rdQLenPdf::2                    104                       # What read queue length does an incoming req see
system.mem_ctrls1.rdQLenPdf::3                     25                       # What read queue length does an incoming req see
system.mem_ctrls1.rdQLenPdf::4                     13                       # What read queue length does an incoming req see
system.mem_ctrls1.rdQLenPdf::5                      7                       # What read queue length does an incoming req see
system.mem_ctrls1.rdQLenPdf::6                      6                       # What read queue length does an incoming req see
system.mem_ctrls1.rdQLenPdf::7                      7                       # What read queue length does an incoming req see
system.mem_ctrls1.rdQLenPdf::8                      5                       # What read queue length does an incoming req see
system.mem_ctrls1.rdQLenPdf::9                      1                       # What read queue length does an incoming req see
system.mem_ctrls1.rdQLenPdf::10                     1                       # What read queue length does an incoming req see
system.mem_ctrls1.rdQLenPdf::11                     1                       # What read queue length does an incoming req see
system.mem_ctrls1.rdQLenPdf::12                     2                       # What read queue length does an incoming req see
system.mem_ctrls1.rdQLenPdf::13                     1                       # What read queue length does an incoming req see
system.mem_ctrls1.rdQLenPdf::14                     0                       # What read queue length does an incoming req see
system.mem_ctrls1.rdQLenPdf::15                     0                       # What read queue length does an incoming req see
system.mem_ctrls1.rdQLenPdf::16                     0                       # What read queue length does an incoming req see
system.mem_ctrls1.rdQLenPdf::17                     0                       # What read queue length does an incoming req see
system.mem_ctrls1.rdQLenPdf::18                     0                       # What read queue length does an incoming req see
system.mem_ctrls1.rdQLenPdf::19                     0                       # What read queue length does an incoming req see
system.mem_ctrls1.rdQLenPdf::20                     0                       # What read queue length does an incoming req see
system.mem_ctrls1.rdQLenPdf::21                     0                       # What read queue length does an incoming req see
system.mem_ctrls1.rdQLenPdf::22                     0                       # What read queue length does an incoming req see
system.mem_ctrls1.rdQLenPdf::23                     0                       # What read queue length does an incoming req see
system.mem_ctrls1.rdQLenPdf::24                     0                       # What read queue length does an incoming req see
system.mem_ctrls1.rdQLenPdf::25                     0                       # What read queue length does an incoming req see
system.mem_ctrls1.rdQLenPdf::26                     0                       # What read queue length does an incoming req see
system.mem_ctrls1.rdQLenPdf::27                     0                       # What read queue length does an incoming req see
system.mem_ctrls1.rdQLenPdf::28                     0                       # What read queue length does an incoming req see
system.mem_ctrls1.rdQLenPdf::29                     0                       # What read queue length does an incoming req see
system.mem_ctrls1.rdQLenPdf::30                     0                       # What read queue length does an incoming req see
system.mem_ctrls1.rdQLenPdf::31                     0                       # What read queue length does an incoming req see
system.mem_ctrls1.wrQLenPdf::0                  11987                       # What write queue length does an incoming req see
system.mem_ctrls1.wrQLenPdf::1                  12024                       # What write queue length does an incoming req see
system.mem_ctrls1.wrQLenPdf::2                  12023                       # What write queue length does an incoming req see
system.mem_ctrls1.wrQLenPdf::3                  12013                       # What write queue length does an incoming req see
system.mem_ctrls1.wrQLenPdf::4                  12004                       # What write queue length does an incoming req see
system.mem_ctrls1.wrQLenPdf::5                     34                       # What write queue length does an incoming req see
system.mem_ctrls1.wrQLenPdf::6                      3                       # What write queue length does an incoming req see
system.mem_ctrls1.wrQLenPdf::7                      2                       # What write queue length does an incoming req see
system.mem_ctrls1.bytesPerActivate::samples        58521                       # Bytes accessed per row activation
system.mem_ctrls1.bytesPerActivate::mean   303.030228                       # Bytes accessed per row activation
system.mem_ctrls1.bytesPerActivate::gmean   206.171350                       # Bytes accessed per row activation
system.mem_ctrls1.bytesPerActivate::stdev   283.721065                       # Bytes accessed per row activation
system.mem_ctrls1.bytesPerActivate::0-127        13547     23.15%     23.15% # Bytes accessed per row activation
system.mem_ctrls1.bytesPerActivate::128-255        16285     27.83%     50.98% # Bytes accessed per row activation
system.mem_ctrls1.bytesPerActivate::256-383        16128     27.56%     78.54% # Bytes accessed per row activation
system.mem_ctrls1.bytesPerActivate::384-511         2537      4.34%     82.87% # Bytes accessed per row activation
system.mem_ctrls1.bytesPerActivate::512-639         1780      3.04%     85.91% # Bytes accessed per row activation
system.mem_ctrls1.bytesPerActivate::640-767         1271      2.17%     88.08% # Bytes accessed per row activation
system.mem_ctrls1.bytesPerActivate::768-895         1077      1.84%     89.92% # Bytes accessed per row activation
system.mem_ctrls1.bytesPerActivate::896-1023          901      1.54%     91.46% # Bytes accessed per row activation
system.mem_ctrls1.bytesPerActivate::1024-1151         4995      8.54%    100.00% # Bytes accessed per row activation
system.mem_ctrls1.bytesPerActivate::total        58521                       # Bytes accessed per row activation
system.mem_ctrls1.rdPerTurnAround::samples        11987                       # Reads before turning the bus around for writes
system.mem_ctrls1.rdPerTurnAround::mean     18.036540                       # Reads before turning the bus around for writes
system.mem_ctrls1.rdPerTurnAround::stdev    89.245964                       # Reads before turning the bus around for writes
system.mem_ctrls1.rdPerTurnAround::0-127        11694     97.56%     97.56% # Reads before turning the bus around for writes
system.mem_ctrls1.rdPerTurnAround::128-255           63      0.53%     98.08% # Reads before turning the bus around for writes
system.mem_ctrls1.rdPerTurnAround::256-383           33      0.28%     98.36% # Reads before turning the bus around for writes
system.mem_ctrls1.rdPerTurnAround::384-511           34      0.28%     98.64% # Reads before turning the bus around for writes
system.mem_ctrls1.rdPerTurnAround::512-639          145      1.21%     99.85% # Reads before turning the bus around for writes
system.mem_ctrls1.rdPerTurnAround::640-767            4      0.03%     99.88% # Reads before turning the bus around for writes
system.mem_ctrls1.rdPerTurnAround::1024-1151            3      0.03%     99.91% # Reads before turning the bus around for writes
system.mem_ctrls1.rdPerTurnAround::1152-1279            1      0.01%     99.92% # Reads before turning the bus around for writes
system.mem_ctrls1.rdPerTurnAround::1280-1407            1      0.01%     99.92% # Reads before turning the bus around for writes
system.mem_ctrls1.rdPerTurnAround::1408-1535            4      0.03%     99.96% # Reads before turning the bus around for writes
system.mem_ctrls1.rdPerTurnAround::1536-1663            1      0.01%     99.97% # Reads before turning the bus around for writes
system.mem_ctrls1.rdPerTurnAround::1664-1791            1      0.01%     99.97% # Reads before turning the bus around for writes
system.mem_ctrls1.rdPerTurnAround::1792-1919            1      0.01%     99.98% # Reads before turning the bus around for writes
system.mem_ctrls1.rdPerTurnAround::2176-2303            1      0.01%     99.99% # Reads before turning the bus around for writes
system.mem_ctrls1.rdPerTurnAround::2816-2943            1      0.01%    100.00% # Reads before turning the bus around for writes
system.mem_ctrls1.rdPerTurnAround::total        11987                       # Reads before turning the bus around for writes
system.mem_ctrls1.wrPerTurnAround::samples        11987                       # Writes before turning the bus around for reads
system.mem_ctrls1.wrPerTurnAround::mean      5.012931                       # Writes before turning the bus around for reads
system.mem_ctrls1.wrPerTurnAround::gmean     5.010789                       # Writes before turning the bus around for reads
system.mem_ctrls1.wrPerTurnAround::stdev     0.185625                       # Writes before turning the bus around for reads
system.mem_ctrls1.wrPerTurnAround::4-5          11872     99.04%     99.04% # Writes before turning the bus around for reads
system.mem_ctrls1.wrPerTurnAround::6-7            110      0.92%     99.96% # Writes before turning the bus around for reads
system.mem_ctrls1.wrPerTurnAround::10-11            2      0.02%     99.97% # Writes before turning the bus around for reads
system.mem_ctrls1.wrPerTurnAround::12-13            2      0.02%     99.99% # Writes before turning the bus around for reads
system.mem_ctrls1.wrPerTurnAround::14-15            1      0.01%    100.00% # Writes before turning the bus around for reads
system.mem_ctrls1.wrPerTurnAround::total        11987                       # Writes before turning the bus around for reads
system.mem_ctrls1.totQLat                  1381615000                       # Total ticks spent queuing
system.mem_ctrls1.totMemAccLat             5450402500                       # Total ticks spent from burst creation until serviced by the DRAM
system.mem_ctrls1.totBusLat                1085010000                       # Total ticks spent in databus transfers
system.mem_ctrls1.avgQLat                     6366.83                       # Average queueing delay per DRAM burst
system.mem_ctrls1.avgBusLat                   5000.00                       # Average bus latency per DRAM burst
system.mem_ctrls1.avgMemAccLat               25116.83                       # Average memory access latency per DRAM burst
system.mem_ctrls1.avgRdBW                      111.91                       # Average DRAM read bandwidth in MiByte/s
system.mem_ctrls1.avgWrBW                       30.99                       # Average achieved write bandwidth in MiByte/s
system.mem_ctrls1.avgRdBWSys                   111.92                       # Average system read bandwidth in MiByte/s
system.mem_ctrls1.avgWrBWSys                    30.99                       # Average system write bandwidth in MiByte/s
system.mem_ctrls1.peakBW                     12800.00                       # Theoretical peak bandwidth in MiByte/s
system.mem_ctrls1.busUtil                        1.12                       # Data bus utilization in percentage
system.mem_ctrls1.busUtilRead                    0.87                       # Data bus utilization in percentage for reads
system.mem_ctrls1.busUtilWrite                   0.24                       # Data bus utilization in percentage for writes
system.mem_ctrls1.avgRdQLen                      1.00                       # Average read queue length when enqueuing
system.mem_ctrls1.avgWrQLen                      2.98                       # Average write queue length when enqueuing
system.mem_ctrls1.readRowHits                  176489                       # Number of row buffer hits during reads
system.mem_ctrls1.writeRowHits                  42080                       # Number of row buffer hits during writes
system.mem_ctrls1.readRowHitRate                81.33                       # Row buffer hit rate for reads
system.mem_ctrls1.writeRowHitRate               70.03                       # Row buffer hit rate for writes
system.mem_ctrls1.avgGap                    447838.93                       # Average gap between requests
system.mem_ctrls1.pageHitRate                   78.88                       # Row buffer hit rate, read and write combined
system.mem_ctrls1.memoryStateTime::IDLE   15163941750                       # Time in different power states
system.mem_ctrls1.memoryStateTime::REF     4144140000                       # Time in different power states
system.mem_ctrls1.memoryStateTime::PRE_PDN            0                       # Time in different power states
system.mem_ctrls1.memoryStateTime::ACT   104797328750                       # Time in different power states
system.mem_ctrls1.memoryStateTime::ACT_PDN            0                       # Time in different power states
system.mem_ctrls1.actEnergy::0              228221280                       # Energy for activate commands per rank (pJ)
system.mem_ctrls1.actEnergy::1              214197480                       # Energy for activate commands per rank (pJ)
system.mem_ctrls1.preEnergy::0              124525500                       # Energy for precharge commands per rank (pJ)
system.mem_ctrls1.preEnergy::1              116873625                       # Energy for precharge commands per rank (pJ)
system.mem_ctrls1.readEnergy::0             854552400                       # Energy for read commands per rank (pJ)
system.mem_ctrls1.readEnergy::1             838032000                       # Energy for read commands per rank (pJ)
system.mem_ctrls1.writeEnergy::0            198028800                       # Energy for write commands per rank (pJ)
system.mem_ctrls1.writeEnergy::1            191354400                       # Energy for write commands per rank (pJ)
system.mem_ctrls1.refreshEnergy::0         8105937840                       # Energy for refresh commands per rank (pJ)
system.mem_ctrls1.refreshEnergy::1         8105937840                       # Energy for refresh commands per rank (pJ)
system.mem_ctrls1.actBackEnergy::0        47233823490                       # Energy for active background per rank (pJ)
system.mem_ctrls1.actBackEnergy::1        46042155270                       # Energy for active background per rank (pJ)
system.mem_ctrls1.preBackEnergy::0        33030016500                       # Energy for precharge background per rank (pJ)
system.mem_ctrls1.preBackEnergy::1        34075339500                       # Energy for precharge background per rank (pJ)
system.mem_ctrls1.totalEnergy::0          89775105810                       # Total energy per rank (pJ)
system.mem_ctrls1.totalEnergy::1          89583890115                       # Total energy per rank (pJ)
system.mem_ctrls1.averagePower::0          723.378355                       # Core power per rank (mW)
system.mem_ctrls1.averagePower::1          721.837601                       # Core power per rank (mW)
system.mem_ctrls2.bytes_read::ruby.dir_cntrl2     13891264                       # Number of bytes read from this memory
system.mem_ctrls2.bytes_read::total          13891264                       # Number of bytes read from this memory
system.mem_ctrls2.bytes_written::ruby.dir_cntrl2      3850432                       # Number of bytes written to this memory
system.mem_ctrls2.bytes_written::total        3850432                       # Number of bytes written to this memory
system.mem_ctrls2.num_reads::ruby.dir_cntrl2       217051                       # Number of read requests responded to by this memory
system.mem_ctrls2.num_reads::total             217051                       # Number of read requests responded to by this memory
system.mem_ctrls2.num_writes::ruby.dir_cntrl2        60163                       # Number of write requests responded to by this memory
system.mem_ctrls2.num_writes::total             60163                       # Number of write requests responded to by this memory
system.mem_ctrls2.bw_read::ruby.dir_cntrl2    111930349                       # Total read bandwidth from this memory (bytes/s)
system.mem_ctrls2.bw_read::total            111930349                       # Total read bandwidth from this memory (bytes/s)
system.mem_ctrls2.bw_write::ruby.dir_cntrl2     31025269                       # Write bandwidth from this memory (bytes/s)
system.mem_ctrls2.bw_write::total            31025269                       # Write bandwidth from this memory (bytes/s)
system.mem_ctrls2.bw_total::ruby.dir_cntrl2    142955618                       # Total bandwidth to/from this memory (bytes/s)
system.mem_ctrls2.bw_total::total           142955618                       # Total bandwidth to/from this memory (bytes/s)
system.mem_ctrls2.readReqs                     217051                       # Number of read requests accepted
system.mem_ctrls2.writeReqs                     60163                       # Number of write requests accepted
system.mem_ctrls2.readBursts                   217051                       # Number of DRAM read bursts, including those serviced by the write queue
system.mem_ctrls2.writeBursts                   60163                       # Number of DRAM write bursts, including those merged in the write queue
system.mem_ctrls2.bytesReadDRAM              13889920                       # Total number of bytes read from DRAM
system.mem_ctrls2.bytesReadWrQ                   1344                       # Total number of bytes read from write queue
system.mem_ctrls2.bytesWritten                3850240                       # Total number of bytes written to DRAM
system.mem_ctrls2.bytesReadSys               13891264                       # Total read bytes from the system interface side
system.mem_ctrls2.bytesWrittenSys             3850432                       # Total written bytes from the system interface side
system.mem_ctrls2.servicedByWrQ                    21                       # Number of DRAM read bursts serviced by the write queue
system.mem_ctrls2.mergedWrBursts                    0                       # Number of DRAM write bursts merged with an existing one
system.mem_ctrls2.neitherReadNorWriteReqs            0                       # Number of requests that are neither read nor write
system.mem_ctrls2.perBankRdBursts::0            13291                       # Per bank write bursts
system.mem_ctrls2.perBankRdBursts::1            13924                       # Per bank write bursts
system.mem_ctrls2.perBankRdBursts::2            13624                       # Per bank write bursts
system.mem_ctrls2.perBankRdBursts::3            13919                       # Per bank write bursts
system.mem_ctrls2.perBankRdBursts::4            13578                       # Per bank write bursts
system.mem_ctrls2.perBankRdBursts::5            14119                       # Per bank write bursts
system.mem_ctrls2.perBankRdBursts::6            13536                       # Per bank write bursts
system.mem_ctrls2.perBankRdBursts::7            13558                       # Per bank write bursts
system.mem_ctrls2.perBankRdBursts::8            13486                       # Per bank write bursts
system.mem_ctrls2.perBankRdBursts::9            13738                       # Per bank write bursts
system.mem_ctrls2.perBankRdBursts::10           13477                       # Per bank write bursts
system.mem_ctrls2.perBankRdBursts::11           13718                       # Per bank write bursts
system.mem_ctrls2.perBankRdBursts::12           13205                       # Per bank write bursts
system.mem_ctrls2.perBankRdBursts::13           13078                       # Per bank write bursts
system.mem_ctrls2.perBankRdBursts::14           13313                       # Per bank write bursts
system.mem_ctrls2.perBankRdBursts::15           13466                       # Per bank write bursts
system.mem_ctrls2.perBankWrBursts::0             3689                       # Per bank write bursts
system.mem_ctrls2.perBankWrBursts::1             3779                       # Per bank write bursts
system.mem_ctrls2.perBankWrBursts::2             3804                       # Per bank write bursts
system.mem_ctrls2.perBankWrBursts::3             3992                       # Per bank write bursts
system.mem_ctrls2.perBankWrBursts::4             3766                       # Per bank write bursts
system.mem_ctrls2.perBankWrBursts::5             3918                       # Per bank write bursts
system.mem_ctrls2.perBankWrBursts::6             3816                       # Per bank write bursts
system.mem_ctrls2.perBankWrBursts::7             3823                       # Per bank write bursts
system.mem_ctrls2.perBankWrBursts::8             3665                       # Per bank write bursts
system.mem_ctrls2.perBankWrBursts::9             3904                       # Per bank write bursts
system.mem_ctrls2.perBankWrBursts::10            3665                       # Per bank write bursts
system.mem_ctrls2.perBankWrBursts::11            3627                       # Per bank write bursts
system.mem_ctrls2.perBankWrBursts::12            3575                       # Per bank write bursts
system.mem_ctrls2.perBankWrBursts::13            3603                       # Per bank write bursts
system.mem_ctrls2.perBankWrBursts::14            3807                       # Per bank write bursts
system.mem_ctrls2.perBankWrBursts::15            3727                       # Per bank write bursts
system.mem_ctrls2.numRdRetry                        0                       # Number of times read queue was full causing retry
system.mem_ctrls2.numWrRetry                        2                       # Number of times write queue was full causing retry
system.mem_ctrls2.totGap                 124105591500                       # Total gap between requests
system.mem_ctrls2.readPktSize::0                    0                       # Read request sizes (log2)
system.mem_ctrls2.readPktSize::1                    0                       # Read request sizes (log2)
system.mem_ctrls2.readPktSize::2                    0                       # Read request sizes (log2)
system.mem_ctrls2.readPktSize::3                    0                       # Read request sizes (log2)
system.mem_ctrls2.readPktSize::4                    0                       # Read request sizes (log2)
system.mem_ctrls2.readPktSize::5                    0                       # Read request sizes (log2)
system.mem_ctrls2.readPktSize::6               217051                       # Read request sizes (log2)
system.mem_ctrls2.writePktSize::0                   0                       # Write request sizes (log2)
system.mem_ctrls2.writePktSize::1                   0                       # Write request sizes (log2)
system.mem_ctrls2.writePktSize::2                   0                       # Write request sizes (log2)
system.mem_ctrls2.writePktSize::3                   0                       # Write request sizes (log2)
system.mem_ctrls2.writePktSize::4                   0                       # Write request sizes (log2)
system.mem_ctrls2.writePktSize::5                   0                       # Write request sizes (log2)
system.mem_ctrls2.writePktSize::6               60163                       # Write request sizes (log2)
system.mem_ctrls2.rdQLenPdf::0                 215994                       # What read queue length does an incoming req see
system.mem_ctrls2.rdQLenPdf::1                    879                       # What read queue length does an incoming req see
system.mem_ctrls2.rdQLenPdf::2                     99                       # What read queue length does an incoming req see
system.mem_ctrls2.rdQLenPdf::3                     24                       # What read queue length does an incoming req see
system.mem_ctrls2.rdQLenPdf::4                     16                       # What read queue length does an incoming req see
system.mem_ctrls2.rdQLenPdf::5                     10                       # What read queue length does an incoming req see
system.mem_ctrls2.rdQLenPdf::6                      4                       # What read queue length does an incoming req see
system.mem_ctrls2.rdQLenPdf::7                      3                       # What read queue length does an incoming req see
system.mem_ctrls2.rdQLenPdf::8                      1                       # What read queue length does an incoming req see
system.mem_ctrls2.rdQLenPdf::9                      0                       # What read queue length does an incoming req see
system.mem_ctrls2.rdQLenPdf::10                     0                       # What read queue length does an incoming req see
system.mem_ctrls2.rdQLenPdf::11                     0                       # What read queue length does an incoming req see
system.mem_ctrls2.rdQLenPdf::12                     0                       # What read queue length does an incoming req see
system.mem_ctrls2.rdQLenPdf::13                     0                       # What read queue length does an incoming req see
system.mem_ctrls2.rdQLenPdf::14                     0                       # What read queue length does an incoming req see
system.mem_ctrls2.rdQLenPdf::15                     0                       # What read queue length does an incoming req see
system.mem_ctrls2.rdQLenPdf::16                     0                       # What read queue length does an incoming req see
system.mem_ctrls2.rdQLenPdf::17                     0                       # What read queue length does an incoming req see
system.mem_ctrls2.rdQLenPdf::18                     0                       # What read queue length does an incoming req see
system.mem_ctrls2.rdQLenPdf::19                     0                       # What read queue length does an incoming req see
system.mem_ctrls2.rdQLenPdf::20                     0                       # What read queue length does an incoming req see
system.mem_ctrls2.rdQLenPdf::21                     0                       # What read queue length does an incoming req see
system.mem_ctrls2.rdQLenPdf::22                     0                       # What read queue length does an incoming req see
system.mem_ctrls2.rdQLenPdf::23                     0                       # What read queue length does an incoming req see
system.mem_ctrls2.rdQLenPdf::24                     0                       # What read queue length does an incoming req see
system.mem_ctrls2.rdQLenPdf::25                     0                       # What read queue length does an incoming req see
system.mem_ctrls2.rdQLenPdf::26                     0                       # What read queue length does an incoming req see
system.mem_ctrls2.rdQLenPdf::27                     0                       # What read queue length does an incoming req see
system.mem_ctrls2.rdQLenPdf::28                     0                       # What read queue length does an incoming req see
system.mem_ctrls2.rdQLenPdf::29                     0                       # What read queue length does an incoming req see
system.mem_ctrls2.rdQLenPdf::30                     0                       # What read queue length does an incoming req see
system.mem_ctrls2.rdQLenPdf::31                     0                       # What read queue length does an incoming req see
system.mem_ctrls2.wrQLenPdf::0                  12006                       # What write queue length does an incoming req see
system.mem_ctrls2.wrQLenPdf::1                  12027                       # What write queue length does an incoming req see
system.mem_ctrls2.wrQLenPdf::2                  12038                       # What write queue length does an incoming req see
system.mem_ctrls2.wrQLenPdf::3                  12024                       # What write queue length does an incoming req see
system.mem_ctrls2.wrQLenPdf::4                  12023                       # What write queue length does an incoming req see
system.mem_ctrls2.wrQLenPdf::5                     33                       # What write queue length does an incoming req see
system.mem_ctrls2.wrQLenPdf::6                      7                       # What write queue length does an incoming req see
system.mem_ctrls2.wrQLenPdf::7                      5                       # What write queue length does an incoming req see
system.mem_ctrls2.bytesPerActivate::samples        58590                       # Bytes accessed per row activation
system.mem_ctrls2.bytesPerActivate::mean   302.783683                       # Bytes accessed per row activation
system.mem_ctrls2.bytesPerActivate::gmean   205.808997                       # Bytes accessed per row activation
system.mem_ctrls2.bytesPerActivate::stdev   283.455135                       # Bytes accessed per row activation
system.mem_ctrls2.bytesPerActivate::0-127        13755     23.48%     23.48% # Bytes accessed per row activation
system.mem_ctrls2.bytesPerActivate::128-255        15908     27.15%     50.63% # Bytes accessed per row activation
system.mem_ctrls2.bytesPerActivate::256-383        16281     27.79%     78.42% # Bytes accessed per row activation
system.mem_ctrls2.bytesPerActivate::384-511         2594      4.43%     82.84% # Bytes accessed per row activation
system.mem_ctrls2.bytesPerActivate::512-639         1812      3.09%     85.94% # Bytes accessed per row activation
system.mem_ctrls2.bytesPerActivate::640-767         1302      2.22%     88.16% # Bytes accessed per row activation
system.mem_ctrls2.bytesPerActivate::768-895         1064      1.82%     89.97% # Bytes accessed per row activation
system.mem_ctrls2.bytesPerActivate::896-1023          880      1.50%     91.48% # Bytes accessed per row activation
system.mem_ctrls2.bytesPerActivate::1024-1151         4994      8.52%    100.00% # Bytes accessed per row activation
system.mem_ctrls2.bytesPerActivate::total        58590                       # Bytes accessed per row activation
system.mem_ctrls2.rdPerTurnAround::samples        12005                       # Reads before turning the bus around for writes
system.mem_ctrls2.rdPerTurnAround::mean     17.997918                       # Reads before turning the bus around for writes
system.mem_ctrls2.rdPerTurnAround::stdev    87.147357                       # Reads before turning the bus around for writes
system.mem_ctrls2.rdPerTurnAround::0-127        11712     97.56%     97.56% # Reads before turning the bus around for writes
system.mem_ctrls2.rdPerTurnAround::128-255           59      0.49%     98.05% # Reads before turning the bus around for writes
system.mem_ctrls2.rdPerTurnAround::256-383           33      0.27%     98.33% # Reads before turning the bus around for writes
system.mem_ctrls2.rdPerTurnAround::384-511           30      0.25%     98.58% # Reads before turning the bus around for writes
system.mem_ctrls2.rdPerTurnAround::512-639          151      1.26%     99.83% # Reads before turning the bus around for writes
system.mem_ctrls2.rdPerTurnAround::640-767            2      0.02%     99.85% # Reads before turning the bus around for writes
system.mem_ctrls2.rdPerTurnAround::768-895            4      0.03%     99.88% # Reads before turning the bus around for writes
system.mem_ctrls2.rdPerTurnAround::896-1023            2      0.02%     99.90% # Reads before turning the bus around for writes
system.mem_ctrls2.rdPerTurnAround::1024-1151            2      0.02%     99.92% # Reads before turning the bus around for writes
system.mem_ctrls2.rdPerTurnAround::1152-1279            3      0.02%     99.94% # Reads before turning the bus around for writes
system.mem_ctrls2.rdPerTurnAround::1280-1407            1      0.01%     99.95% # Reads before turning the bus around for writes
system.mem_ctrls2.rdPerTurnAround::1408-1535            3      0.02%     99.98% # Reads before turning the bus around for writes
system.mem_ctrls2.rdPerTurnAround::1536-1663            1      0.01%     99.98% # Reads before turning the bus around for writes
system.mem_ctrls2.rdPerTurnAround::1664-1791            1      0.01%     99.99% # Reads before turning the bus around for writes
system.mem_ctrls2.rdPerTurnAround::2816-2943            1      0.01%    100.00% # Reads before turning the bus around for writes
system.mem_ctrls2.rdPerTurnAround::total        12005                       # Reads before turning the bus around for writes
system.mem_ctrls2.wrPerTurnAround::samples        12005                       # Writes before turning the bus around for reads
system.mem_ctrls2.wrPerTurnAround::mean      5.011245                       # Writes before turning the bus around for reads
system.mem_ctrls2.wrPerTurnAround::gmean     5.009328                       # Writes before turning the bus around for reads
system.mem_ctrls2.wrPerTurnAround::stdev     0.173052                       # Writes before turning the bus around for reads
system.mem_ctrls2.wrPerTurnAround::4-5          11909     99.20%     99.20% # Writes before turning the bus around for reads
system.mem_ctrls2.wrPerTurnAround::6-7             87      0.72%     99.93% # Writes before turning the bus around for reads
system.mem_ctrls2.wrPerTurnAround::8-9              5      0.04%     99.97% # Writes before turning the bus around for reads
system.mem_ctrls2.wrPerTurnAround::10-11            2      0.02%     99.98% # Writes before turning the bus around for reads
system.mem_ctrls2.wrPerTurnAround::12-13            1      0.01%     99.99% # Writes before turning the bus around for reads
system.mem_ctrls2.wrPerTurnAround::14-15            1      0.01%    100.00% # Writes before turning the bus around for reads
system.mem_ctrls2.wrPerTurnAround::total        12005                       # Writes before turning the bus around for reads
system.mem_ctrls2.totQLat                  1425525000                       # Total ticks spent queuing
system.mem_ctrls2.totMemAccLat             5494837500                       # Total ticks spent from burst creation until serviced by the DRAM
system.mem_ctrls2.totBusLat                1085150000                       # Total ticks spent in databus transfers
system.mem_ctrls2.avgQLat                     6568.33                       # Average queueing delay per DRAM burst
system.mem_ctrls2.avgBusLat                   5000.00                       # Average bus latency per DRAM burst
system.mem_ctrls2.avgMemAccLat               25318.33                       # Average memory access latency per DRAM burst
system.mem_ctrls2.avgRdBW                      111.92                       # Average DRAM read bandwidth in MiByte/s
system.mem_ctrls2.avgWrBW                       31.02                       # Average achieved write bandwidth in MiByte/s
system.mem_ctrls2.avgRdBWSys                   111.93                       # Average system read bandwidth in MiByte/s
system.mem_ctrls2.avgWrBWSys                    31.03                       # Average system write bandwidth in MiByte/s
system.mem_ctrls2.peakBW                     12800.00                       # Theoretical peak bandwidth in MiByte/s
system.mem_ctrls2.busUtil                        1.12                       # Data bus utilization in percentage
system.mem_ctrls2.busUtilRead                    0.87                       # Data bus utilization in percentage for reads
system.mem_ctrls2.busUtilWrite                   0.24                       # Data bus utilization in percentage for writes
system.mem_ctrls2.avgRdQLen                      1.00                       # Average read queue length when enqueuing
system.mem_ctrls2.avgWrQLen                      2.99                       # Average write queue length when enqueuing
system.mem_ctrls2.readRowHits                  176491                       # Number of row buffer hits during reads
system.mem_ctrls2.writeRowHits                  42108                       # Number of row buffer hits during writes
system.mem_ctrls2.readRowHitRate                81.32                       # Row buffer hit rate for reads
system.mem_ctrls2.writeRowHitRate               69.99                       # Row buffer hit rate for writes
system.mem_ctrls2.avgGap                    447688.76                       # Average gap between requests
system.mem_ctrls2.pageHitRate                   78.86                       # Row buffer hit rate, read and write combined
system.mem_ctrls2.memoryStateTime::IDLE   15181448250                       # Time in different power states
system.mem_ctrls2.memoryStateTime::REF     4144140000                       # Time in different power states
system.mem_ctrls2.memoryStateTime::PRE_PDN            0                       # Time in different power states
system.mem_ctrls2.memoryStateTime::ACT   104780029250                       # Time in different power states
system.mem_ctrls2.memoryStateTime::ACT_PDN            0                       # Time in different power states
system.mem_ctrls2.actEnergy::0              228364920                       # Energy for activate commands per rank (pJ)
system.mem_ctrls2.actEnergy::1              214575480                       # Energy for activate commands per rank (pJ)
system.mem_ctrls2.preEnergy::0              124603875                       # Energy for precharge commands per rank (pJ)
system.mem_ctrls2.preEnergy::1              117079875                       # Energy for precharge commands per rank (pJ)
system.mem_ctrls2.readEnergy::0             854482200                       # Energy for read commands per rank (pJ)
system.mem_ctrls2.readEnergy::1             838344000                       # Energy for read commands per rank (pJ)
system.mem_ctrls2.writeEnergy::0            198203760                       # Energy for write commands per rank (pJ)
system.mem_ctrls2.writeEnergy::1            191633040                       # Energy for write commands per rank (pJ)
system.mem_ctrls2.refreshEnergy::0         8105937840                       # Energy for refresh commands per rank (pJ)
system.mem_ctrls2.refreshEnergy::1         8105937840                       # Energy for refresh commands per rank (pJ)
system.mem_ctrls2.actBackEnergy::0        47338115535                       # Energy for active background per rank (pJ)
system.mem_ctrls2.actBackEnergy::1        46158532740                       # Energy for active background per rank (pJ)
system.mem_ctrls2.preBackEnergy::0        32938516500                       # Energy for precharge background per rank (pJ)
system.mem_ctrls2.preBackEnergy::1        33973238250                       # Energy for precharge background per rank (pJ)
system.mem_ctrls2.totalEnergy::0          89788224630                       # Total energy per rank (pJ)
system.mem_ctrls2.totalEnergy::1          89599341225                       # Total energy per rank (pJ)
system.mem_ctrls2.averagePower::0          723.484215                       # Core power per rank (mW)
system.mem_ctrls2.averagePower::1          721.962254                       # Core power per rank (mW)
system.mem_ctrls3.bytes_read::ruby.dir_cntrl3     13874112                       # Number of bytes read from this memory
system.mem_ctrls3.bytes_read::total          13874112                       # Number of bytes read from this memory
system.mem_ctrls3.bytes_written::ruby.dir_cntrl3      3842944                       # Number of bytes written to this memory
system.mem_ctrls3.bytes_written::total        3842944                       # Number of bytes written to this memory
system.mem_ctrls3.num_reads::ruby.dir_cntrl3       216783                       # Number of read requests responded to by this memory
system.mem_ctrls3.num_reads::total             216783                       # Number of read requests responded to by this memory
system.mem_ctrls3.num_writes::ruby.dir_cntrl3        60046                       # Number of write requests responded to by this memory
system.mem_ctrls3.num_writes::total             60046                       # Number of write requests responded to by this memory
system.mem_ctrls3.bw_read::ruby.dir_cntrl3    111792145                       # Total read bandwidth from this memory (bytes/s)
system.mem_ctrls3.bw_read::total            111792145                       # Total read bandwidth from this memory (bytes/s)
system.mem_ctrls3.bw_write::ruby.dir_cntrl3     30964933                       # Write bandwidth from this memory (bytes/s)
system.mem_ctrls3.bw_write::total            30964933                       # Write bandwidth from this memory (bytes/s)
system.mem_ctrls3.bw_total::ruby.dir_cntrl3    142757078                       # Total bandwidth to/from this memory (bytes/s)
system.mem_ctrls3.bw_total::total           142757078                       # Total bandwidth to/from this memory (bytes/s)
system.mem_ctrls3.readReqs                     216784                       # Number of read requests accepted
system.mem_ctrls3.writeReqs                     60046                       # Number of write requests accepted
system.mem_ctrls3.readBursts                   216784                       # Number of DRAM read bursts, including those serviced by the write queue
system.mem_ctrls3.writeBursts                   60046                       # Number of DRAM write bursts, including those merged in the write queue
system.mem_ctrls3.bytesReadDRAM              13872768                       # Total number of bytes read from DRAM
system.mem_ctrls3.bytesReadWrQ                   1408                       # Total number of bytes read from write queue
system.mem_ctrls3.bytesWritten                3842880                       # Total number of bytes written to DRAM
system.mem_ctrls3.bytesReadSys               13874176                       # Total read bytes from the system interface side
system.mem_ctrls3.bytesWrittenSys             3842944                       # Total written bytes from the system interface side
system.mem_ctrls3.servicedByWrQ                    22                       # Number of DRAM read bursts serviced by the write queue
system.mem_ctrls3.mergedWrBursts                    0                       # Number of DRAM write bursts merged with an existing one
system.mem_ctrls3.neitherReadNorWriteReqs            0                       # Number of requests that are neither read nor write
system.mem_ctrls3.perBankRdBursts::0            13265                       # Per bank write bursts
system.mem_ctrls3.perBankRdBursts::1            13943                       # Per bank write bursts
system.mem_ctrls3.perBankRdBursts::2            13560                       # Per bank write bursts
system.mem_ctrls3.perBankRdBursts::3            13899                       # Per bank write bursts
system.mem_ctrls3.perBankRdBursts::4            13511                       # Per bank write bursts
system.mem_ctrls3.perBankRdBursts::5            14096                       # Per bank write bursts
system.mem_ctrls3.perBankRdBursts::6            13566                       # Per bank write bursts
system.mem_ctrls3.perBankRdBursts::7            13519                       # Per bank write bursts
system.mem_ctrls3.perBankRdBursts::8            13482                       # Per bank write bursts
system.mem_ctrls3.perBankRdBursts::9            13714                       # Per bank write bursts
system.mem_ctrls3.perBankRdBursts::10           13519                       # Per bank write bursts
system.mem_ctrls3.perBankRdBursts::11           13671                       # Per bank write bursts
system.mem_ctrls3.perBankRdBursts::12           13200                       # Per bank write bursts
system.mem_ctrls3.perBankRdBursts::13           13088                       # Per bank write bursts
system.mem_ctrls3.perBankRdBursts::14           13327                       # Per bank write bursts
system.mem_ctrls3.perBankRdBursts::15           13402                       # Per bank write bursts
system.mem_ctrls3.perBankWrBursts::0             3694                       # Per bank write bursts
system.mem_ctrls3.perBankWrBursts::1             3773                       # Per bank write bursts
system.mem_ctrls3.perBankWrBursts::2             3767                       # Per bank write bursts
system.mem_ctrls3.perBankWrBursts::3             3975                       # Per bank write bursts
system.mem_ctrls3.perBankWrBursts::4             3764                       # Per bank write bursts
system.mem_ctrls3.perBankWrBursts::5             3913                       # Per bank write bursts
system.mem_ctrls3.perBankWrBursts::6             3813                       # Per bank write bursts
system.mem_ctrls3.perBankWrBursts::7             3782                       # Per bank write bursts
system.mem_ctrls3.perBankWrBursts::8             3662                       # Per bank write bursts
system.mem_ctrls3.perBankWrBursts::9             3919                       # Per bank write bursts
system.mem_ctrls3.perBankWrBursts::10            3665                       # Per bank write bursts
system.mem_ctrls3.perBankWrBursts::11            3640                       # Per bank write bursts
system.mem_ctrls3.perBankWrBursts::12            3573                       # Per bank write bursts
system.mem_ctrls3.perBankWrBursts::13            3596                       # Per bank write bursts
system.mem_ctrls3.perBankWrBursts::14            3805                       # Per bank write bursts
system.mem_ctrls3.perBankWrBursts::15            3704                       # Per bank write bursts
system.mem_ctrls3.numRdRetry                        0                       # Number of times read queue was full causing retry
system.mem_ctrls3.numWrRetry                        1                       # Number of times write queue was full causing retry
[...]
system.ruby.L2Cache_Controller.S_I.Ack::total           13                      
system.ruby.L2Cache_Controller.S_I.Ack_all |           0      0.00%      0.00% |           4     12.12%     12.12% |           1      3.03%     15.15% |           2      6.06%     21.21% |           0      0.00%     21.21% |           3      9.09%     30.30% |           0      0.00%     30.30% |           0      0.00%     30.30% |           0      0.00%     30.30% |           1      3.03%     33.33% |           0      0.00%     33.33% |           0      0.00%     33.33% |           5     15.15%     48.48% |           0      0.00%     48.48% |           2      6.06%     54.55% |           1      3.03%     57.58% |           0      0.00%     57.58% |           0      0.00%     57.58% |           1      3.03%     60.61% |           2      6.06%     66.67% |           0      0.00%     66.67% |           1      3.03%     69.70% |           2      6.06%     75.76% |           0      0.00%     75.76% |           1      3.03%     78.79% |           1      3.03%     81.82% |           0      0.00%     81.82% |           1      3.03%     84.85% |           4     12.12%     96.97% |           0      0.00%     96.97% |           0      0.00%     96.97% |           1      3.03%    100.00%
system.ruby.L2Cache_Controller.S_I.Ack_all::total           33                      
system.ruby.L2Cache_Controller.ISS.Mem_Data |       23436      3.52%      3.52% |       20757      3.12%      6.64% |       20839      3.13%      9.78% |       20744      3.12%     12.90% |       20727      3.12%     16.01% |       20729      3.12%     19.13% |       20710      3.11%     22.24% |       20706      3.11%     25.35% |       20717      3.11%     28.47% |       20740      3.12%     31.59% |       20778      3.12%     34.71% |       20687      3.11%     37.82% |       20689      3.11%     40.93% |       20690      3.11%     44.04% |       20707      3.11%     47.15% |       20649      3.10%     50.26% |       20674      3.11%     53.37% |       20671      3.11%     56.47% |       20687      3.11%     59.58% |       20672      3.11%     62.69% |       20694      3.11%     65.80% |       20658      3.11%     68.91% |       20697      3.11%     72.02% |       20675      3.11%     75.13% |       20705      3.11%     78.24% |       20708      3.11%     81.36% |       20664      3.11%     84.46% |       20643      3.10%     87.57% |       20694      3.11%     90.68% |       20635      3.10%     93.78% |       20633      3.10%     96.88% |       20749      3.12%    100.00%
system.ruby.L2Cache_Controller.ISS.Mem_Data::total       665164                      
system.ruby.L2Cache_Controller.IS.Mem_Data |         479      3.16%      3.16% |         412      2.72%      5.88% |         443      2.92%      8.81% |         433      2.86%     11.66% |         442      2.92%     14.58% |         426      2.81%     17.39% |         420      2.77%     20.17% |         452      2.98%     23.15% |         445      2.94%     26.09% |         483      3.19%     29.27% |         490      3.23%     32.51% |         477      3.15%     35.66% |         532      3.51%     39.17% |         539      3.56%     42.73% |         464      3.06%     45.79% |         521      3.44%     49.23% |         529      3.49%     52.72% |         510      3.37%     56.09% |         463      3.06%     59.14% |         427      2.82%     61.96% |         443      2.92%     64.88% |         500      3.30%     68.18% |         484      3.19%     71.38% |         488      3.22%     74.60% |         486      3.21%     77.81% |         515      3.40%     81.21% |         511      3.37%     84.58% |         476      3.14%     87.72% |         479      3.16%     90.88% |         472      3.12%     94.00% |         466      3.08%     97.08% |         443      2.92%    100.00%
system.ruby.L2Cache_Controller.IS.Mem_Data::total        15150                      
system.ruby.L2Cache_Controller.IM.Mem_Data |        6016      3.16%      3.16% |        5949      3.12%      6.28% |        5956      3.13%      9.41% |        5967      3.13%     12.55% |        5946      3.12%     15.67% |        5947      3.12%     18.79% |        5941      3.12%     21.91% |        5931      3.12%     25.03% |        5974      3.14%     28.17% |        5944      3.12%     31.29% |        5929      3.11%     34.40% |        5950      3.13%     37.53% |        5951      3.13%     40.65% |        5934      3.12%     43.77% |        5932      3.12%     46.89% |        5932      3.12%     50.00% |        5946      3.12%     53.13% |        5956      3.13%     56.25% |        5958      3.13%     59.38% |        5937      3.12%     62.50% |        5943      3.12%     65.62% |        5952      3.13%     68.75% |        5933      3.12%     71.87% |        5942      3.12%     74.99% |        5948      3.12%     78.11% |        5946      3.12%     81.23% |        5971      3.14%     84.37% |        5955      3.13%     87.50% |        5944      3.12%     90.62% |        5958      3.13%     93.75% |        5975      3.14%     96.89% |        5927      3.11%    100.00%
system.ruby.L2Cache_Controller.IM.Mem_Data::total       190390                      
system.ruby.L2Cache_Controller.SS_MB.Exclusive_Unblock |           5      9.26%      9.26% |           6     11.11%     20.37% |           3      5.56%     25.93% |           6     11.11%     37.04% |           0      0.00%     37.04% |           1      1.85%     38.89% |           1      1.85%     40.74% |           0      0.00%     40.74% |           0      0.00%     40.74% |           1      1.85%     42.59% |           0      0.00%     42.59% |           0      0.00%     42.59% |           5      9.26%     51.85% |           0      0.00%     51.85% |           2      3.70%     55.56% |           1      1.85%     57.41% |           0      0.00%     57.41% |           0      0.00%     57.41% |          10     18.52%     75.93% |           2      3.70%     79.63% |           0      0.00%     79.63% |           0      0.00%     79.63% |           0      0.00%     79.63% |           0      0.00%     79.63% |           1      1.85%     81.48% |           0      0.00%     81.48% |           2      3.70%     85.19% |           1      1.85%     87.04% |           4      7.41%     94.44% |           1      1.85%     96.30% |           1      1.85%     98.15% |           1      1.85%    100.00%
system.ruby.L2Cache_Controller.SS_MB.Exclusive_Unblock::total           54                      
system.ruby.L2Cache_Controller.MT_MB.Exclusive_Unblock |       78672      7.15%      7.15% |       33611      3.06%     10.21% |       32979      3.00%     13.20% |       33127      3.01%     16.22% |       33217      3.02%     19.23% |       32147      2.92%     22.16% |       32057      2.91%     25.07% |       31776      2.89%     27.96% |       34096      3.10%     31.06% |       32448      2.95%     34.01% |       34394      3.13%     37.13% |       33210      3.02%     40.15% |       32785      2.98%     43.13% |       31824      2.89%     46.03% |       31870      2.90%     48.92% |       31737      2.88%     51.81% |       34342      3.12%     54.93% |       32323      2.94%     57.87% |       33191      3.02%     60.88% |       32741      2.98%     63.86% |       33125      3.01%     66.87% |       32552      2.96%     69.83% |       33106      3.01%     72.84% |       32103      2.92%     75.76% |       33739      3.07%     78.82% |       32436      2.95%     81.77% |       32941      2.99%     84.77% |       31908      2.90%     87.67% |       33259      3.02%     90.69% |       31985      2.91%     93.60% |       34379      3.12%     96.72% |       36051      3.28%    100.00%
system.ruby.L2Cache_Controller.MT_MB.Exclusive_Unblock::total      1100131                      
system.ruby.L2Cache_Controller.MT_IIB.WB_Data |           0      0.00%      0.00% |           2     16.67%     16.67% |           0      0.00%     16.67% |           0      0.00%     16.67% |           0      0.00%     16.67% |           0      0.00%     16.67% |           0      0.00%     16.67% |           0      0.00%     16.67% |           0      0.00%     16.67% |           0      0.00%     16.67% |           0      0.00%     16.67% |           0      0.00%     16.67% |           4     33.33%     50.00% |           0      0.00%     50.00% |           0      0.00%     50.00% |           0      0.00%     50.00% |           0      0.00%     50.00% |           0      0.00%     50.00% |           1      8.33%     58.33% |           1      8.33%     66.67% |           0      0.00%     66.67% |           0      0.00%     66.67% |           2     16.67%     83.33% |           0      0.00%     83.33% |           0      0.00%     83.33% |           0      0.00%     83.33% |           0      0.00%     83.33% |           0      0.00%     83.33% |           2     16.67%    100.00% |           0      0.00%    100.00% |           0      0.00%    100.00% |           0      0.00%    100.00%
system.ruby.L2Cache_Controller.MT_IIB.WB_Data::total           12                      
system.ruby.L2Cache_Controller.MT_IIB.WB_Data_clean |           0      0.00%      0.00% |           2     50.00%     50.00% |           0      0.00%     50.00% |           0      0.00%     50.00% |           0      0.00%     50.00% |           0      0.00%     50.00% |           0      0.00%     50.00% |           0      0.00%     50.00% |           0      0.00%     50.00% |           0      0.00%     50.00% |           0      0.00%     50.00% |           0      0.00%     50.00% |           0      0.00%     50.00% |           0      0.00%     50.00% |           1     25.00%     75.00% |           0      0.00%     75.00% |           1     25.00%    100.00% |           0      0.00%    100.00% |           0      0.00%    100.00% |           0      0.00%    100.00% |           0      0.00%    100.00% |           0      0.00%    100.00% |           0      0.00%    100.00% |           0      0.00%    100.00% |           0      0.00%    100.00% |           0      0.00%    100.00% |           0      0.00%    100.00% |           0      0.00%    100.00% |           0      0.00%    100.00% |           0      0.00%    100.00% |           0      0.00%    100.00% |           0      0.00%    100.00%
system.ruby.L2Cache_Controller.MT_IIB.WB_Data_clean::total            4                      
system.ruby.L2Cache_Controller.MT_IIB.Unblock |           0      0.00%      0.00% |           0      0.00%      0.00% |           0      0.00%      0.00% |           0      0.00%      0.00% |           0      0.00%      0.00% |           0      0.00%      0.00% |           0      0.00%      0.00% |           0      0.00%      0.00% |           0      0.00%      0.00% |           0      0.00%      0.00% |           0      0.00%      0.00% |           0      0.00%      0.00% |           0      0.00%      0.00% |           0      0.00%      0.00% |           0      0.00%      0.00% |           0      0.00%      0.00% |           0      0.00%      0.00% |           0      0.00%      0.00% |           0      0.00%      0.00% |           0      0.00%      0.00% |           0      0.00%      0.00% |           0      0.00%      0.00% |           0      0.00%      0.00% |           0      0.00%      0.00% |           0      0.00%      0.00% |           1    100.00%    100.00% |           0      0.00%    100.00% |           0      0.00%    100.00% |           0      0.00%    100.00% |           0      0.00%    100.00% |           0      0.00%    100.00% |           0      0.00%    100.00%
system.ruby.L2Cache_Controller.MT_IIB.Unblock::total            1                      
system.ruby.L2Cache_Controller.MT_IB.WB_Data |           0      0.00%      0.00% |           0      0.00%      0.00% |           0      0.00%      0.00% |           0      0.00%      0.00% |           0      0.00%      0.00% |           0      0.00%      0.00% |           0      0.00%      0.00% |           0      0.00%      0.00% |           0      0.00%      0.00% |           0      0.00%      0.00% |           0      0.00%      0.00% |           0      0.00%      0.00% |           0      0.00%      0.00% |           0      0.00%      0.00% |           0      0.00%      0.00% |           0      0.00%      0.00% |           0      0.00%      0.00% |           0      0.00%      0.00% |           0      0.00%      0.00% |           0      0.00%      0.00% |           0      0.00%      0.00% |           0      0.00%      0.00% |           0      0.00%      0.00% |           0      0.00%      0.00% |           0      0.00%      0.00% |           1    100.00%    100.00% |           0      0.00%    100.00% |           0      0.00%    100.00% |           0      0.00%    100.00% |           0      0.00%    100.00% |           0      0.00%    100.00% |           0      0.00%    100.00%
system.ruby.L2Cache_Controller.MT_IB.WB_Data::total            1                      
system.ruby.L2Cache_Controller.MT_SB.Unblock |           0      0.00%      0.00% |           4     25.00%     25.00% |           0      0.00%     25.00% |           0      0.00%     25.00% |           0      0.00%     25.00% |           0      0.00%     25.00% |           0      0.00%     25.00% |           0      0.00%     25.00% |           0      0.00%     25.00% |           0      0.00%     25.00% |           0      0.00%     25.00% |           0      0.00%     25.00% |           4     25.00%     50.00% |           0      0.00%     50.00% |           1      6.25%     56.25% |           0      0.00%     56.25% |           1      6.25%     62.50% |           0      0.00%     62.50% |           1      6.25%     68.75% |           1      6.25%     75.00% |           0      0.00%     75.00% |           0      0.00%     75.00% |           2     12.50%     87.50% |           0      0.00%     87.50% |           0      0.00%     87.50% |           0      0.00%     87.50% |           0      0.00%     87.50% |           0      0.00%     87.50% |           2     12.50%    100.00% |           0      0.00%    100.00% |           0      0.00%    100.00% |           0      0.00%    100.00%
system.ruby.L2Cache_Controller.MT_SB.Unblock::total           16                      
system.ruby.SimicsNetworkPortInterface_Controller.MessageSend |       75054      4.17%      4.17% |      899951     50.00%     54.17% |      824897     45.83%    100.00% |           0      0.00%    100.00% |           0      0.00%    100.00% |           0      0.00%    100.00% |           0      0.00%    100.00% |           0      0.00%    100.00% |           0      0.00%    100.00% |           0      0.00%    100.00% |           0      0.00%    100.00% |           0      0.00%    100.00% |           0      0.00%    100.00% |           0      0.00%    100.00% |           0      0.00%    100.00% |           0      0.00%    100.00% |           0      0.00%    100.00% |           0      0.00%    100.00% |           0      0.00%    100.00% |           0      0.00%    100.00% |           0      0.00%    100.00% |           0      0.00%    100.00% |           0      0.00%    100.00% |           0      0.00%    100.00% |           0      0.00%    100.00% |           0      0.00%    100.00% |           0      0.00%    100.00% |           0      0.00%    100.00% |           0      0.00%    100.00% |           0      0.00%    100.00% |           0      0.00%    100.00% |           0      0.00%    100.00%
system.ruby.SimicsNetworkPortInterface_Controller.MessageSend::total      1799902                      
system.ruby.SimicsNetworkPortInterface_Controller.MessageRecv |       75054      4.17%      4.17% |      899951     50.00%     54.17% |      824897     45.83%    100.00% |           0      0.00%    100.00% |           0      0.00%    100.00% |           0      0.00%    100.00% |           0      0.00%    100.00% |           0      0.00%    100.00% |           0      0.00%    100.00% |           0      0.00%    100.00% |           0      0.00%    100.00% |           0      0.00%    100.00% |           0      0.00%    100.00% |           0      0.00%    100.00% |           0      0.00%    100.00% |           0      0.00%    100.00% |           0      0.00%    100.00% |           0      0.00%    100.00% |           0      0.00%    100.00% |           0      0.00%    100.00% |           0      0.00%    100.00% |           0      0.00%    100.00% |           0      0.00%    100.00% |           0      0.00%    100.00% |           0      0.00%    100.00% |           0      0.00%    100.00% |           0      0.00%    100.00% |           0      0.00%    100.00% |           0      0.00%    100.00% |           0      0.00%    100.00% |           0      0.00%    100.00% |           0      0.00%    100.00%
system.ruby.SimicsNetworkPortInterface_Controller.MessageRecv::total      1799902                      
system.ruby.SimicsNetworkPortInterface_Controller.A.MessageSend |       75054      4.17%      4.17% |      899951     50.00%     54.17% |      824897     45.83%    100.00% |           0      0.00%    100.00% |           0      0.00%    100.00% |           0      0.00%    100.00% |           0      0.00%    100.00% |           0      0.00%    100.00% |           0      0.00%    100.00% |           0      0.00%    100.00% |           0      0.00%    100.00% |           0      0.00%    100.00% |           0      0.00%    100.00% |           0      0.00%    100.00% |           0      0.00%    100.00% |           0      0.00%    100.00% |           0      0.00%    100.00% |           0      0.00%    100.00% |           0      0.00%    100.00% |           0      0.00%    100.00% |           0      0.00%    100.00% |           0      0.00%    100.00% |           0      0.00%    100.00% |           0      0.00%    100.00% |           0      0.00%    100.00% |           0      0.00%    100.00% |           0      0.00%    100.00% |           0      0.00%    100.00% |           0      0.00%    100.00% |           0      0.00%    100.00% |           0      0.00%    100.00% |           0      0.00%    100.00%
system.ruby.SimicsNetworkPortInterface_Controller.A.MessageSend::total      1799902                      
system.ruby.SimicsNetworkPortInterface_Controller.A.MessageRecv |       75054      4.17%      4.17% |      899951     50.00%     54.17% |      824897     45.83%    100.00% |           0      0.00%    100.00% |           0      0.00%    100.00% |           0      0.00%    100.00% |           0      0.00%    100.00% |           0      0.00%    100.00% |           0      0.00%    100.00% |           0      0.00%    100.00% |           0      0.00%    100.00% |           0      0.00%    100.00% |           0      0.00%    100.00% |           0      0.00%    100.00% |           0      0.00%    100.00% |           0      0.00%    100.00% |           0      0.00%    100.00% |           0      0.00%    100.00% |           0      0.00%    100.00% |           0      0.00%    100.00% |           0      0.00%    100.00% |           0      0.00%    100.00% |           0      0.00%    100.00% |           0      0.00%    100.00% |           0      0.00%    100.00% |           0      0.00%    100.00% |           0      0.00%    100.00% |           0      0.00%    100.00% |           0      0.00%    100.00% |           0      0.00%    100.00% |           0      0.00%    100.00% |           0      0.00%    100.00%
system.ruby.SimicsNetworkPortInterface_Controller.A.MessageRecv::total      1799902                      
system.switch_cpus.kern.inst.arm                    0                       # number of arm instructions executed
system.switch_cpus.kern.inst.quiesce                0                       # number of quiesce instructions executed

---------- End Simulation Statistics   ----------
