
---------- Begin Simulation Statistics ----------
sim_seconds                                  0.143157                       # Number of seconds simulated
sim_ticks                                143157487500                       # Number of ticks simulated
final_tick                               5319325566000                       # Number of ticks from beginning of simulation (restored from checkpoints and never reset)
sim_freq                                 1000000000000                       # Frequency of simulated ticks
host_inst_rate                                  31564                       # Simulator instruction rate (inst/s)
host_op_rate                                    53413                       # Simulator op (including micro ops) rate (op/s)
host_tick_rate                               54433146                       # Simulator tick rate (ticks/s)
host_mem_usage                                6133848                       # Number of bytes of host memory used
host_seconds                                  2629.97                       # Real time elapsed on the host
sim_insts                                    83011293                       # Number of instructions simulated
sim_ops                                     140473437                       # Number of ops (including micro ops) simulated
system.voltage_domain.voltage                       1                       # Voltage in Volts
system.clk_domain.clock                           500                       # Clock period in ticks
system.mem_ctrls0.bytes_read::ruby.dir_cntrl0     38261120                       # Number of bytes read from this memory
system.mem_ctrls0.bytes_read::total          38261120                       # Number of bytes read from this memory
system.mem_ctrls0.bytes_written::ruby.dir_cntrl0     18605760                       # Number of bytes written to this memory
system.mem_ctrls0.bytes_written::total       18605760                       # Number of bytes written to this memory
system.mem_ctrls0.num_reads::ruby.dir_cntrl0       597830                       # Number of read requests responded to by this memory
system.mem_ctrls0.num_reads::total             597830                       # Number of read requests responded to by this memory
system.mem_ctrls0.num_writes::ruby.dir_cntrl0       290715                       # Number of write requests responded to by this memory
system.mem_ctrls0.num_writes::total            290715                       # Number of write requests responded to by this memory
system.mem_ctrls0.bw_read::ruby.dir_cntrl0    267265937                       # Total read bandwidth from this memory (bytes/s)
system.mem_ctrls0.bw_read::total            267265937                       # Total read bandwidth from this memory (bytes/s)
system.mem_ctrls0.bw_write::ruby.dir_cntrl0    129967076                       # Write bandwidth from this memory (bytes/s)
system.mem_ctrls0.bw_write::total           129967076                       # Write bandwidth from this memory (bytes/s)
system.mem_ctrls0.bw_total::ruby.dir_cntrl0    397233012                       # Total bandwidth to/from this memory (bytes/s)
system.mem_ctrls0.bw_total::total           397233012                       # Total bandwidth to/from this memory (bytes/s)
system.mem_ctrls0.readReqs                     597830                       # Number of read requests accepted
system.mem_ctrls0.writeReqs                    290715                       # Number of write requests accepted
system.mem_ctrls0.readBursts                   597830                       # Number of DRAM read bursts, including those serviced by the write queue
system.mem_ctrls0.writeBursts                  290715                       # Number of DRAM write bursts, including those merged in the write queue
system.mem_ctrls0.bytesReadDRAM              38256768                       # Total number of bytes read from DRAM
system.mem_ctrls0.bytesReadWrQ                   4352                       # Total number of bytes read from write queue
system.mem_ctrls0.bytesWritten               18605696                       # Total number of bytes written to DRAM
system.mem_ctrls0.bytesReadSys               38261120                       # Total read bytes from the system interface side
system.mem_ctrls0.bytesWrittenSys            18605760                       # Total written bytes from the system interface side
system.mem_ctrls0.servicedByWrQ                    68                       # Number of DRAM read bursts serviced by the write queue
system.mem_ctrls0.mergedWrBursts                    0                       # Number of DRAM write bursts merged with an existing one
system.mem_ctrls0.neitherReadNorWriteReqs            0                       # Number of requests that are neither read nor write
system.mem_ctrls0.perBankRdBursts::0            37316                       # Per bank write bursts
system.mem_ctrls0.perBankRdBursts::1            37616                       # Per bank write bursts
system.mem_ctrls0.perBankRdBursts::2            37349                       # Per bank write bursts
system.mem_ctrls0.perBankRdBursts::3            37564                       # Per bank write bursts
system.mem_ctrls0.perBankRdBursts::4            37230                       # Per bank write bursts
system.mem_ctrls0.perBankRdBursts::5            37407                       # Per bank write bursts
system.mem_ctrls0.perBankRdBursts::6            37893                       # Per bank write bursts
system.mem_ctrls0.perBankRdBursts::7            37634                       # Per bank write bursts
system.mem_ctrls0.perBankRdBursts::8            37031                       # Per bank write bursts
system.mem_ctrls0.perBankRdBursts::9            37290                       # Per bank write bursts
system.mem_ctrls0.perBankRdBursts::10           37173                       # Per bank write bursts
system.mem_ctrls0.perBankRdBursts::11           37571                       # Per bank write bursts
system.mem_ctrls0.perBankRdBursts::12           36967                       # Per bank write bursts
system.mem_ctrls0.perBankRdBursts::13           36987                       # Per bank write bursts
system.mem_ctrls0.perBankRdBursts::14           37400                       # Per bank write bursts
system.mem_ctrls0.perBankRdBursts::15           37334                       # Per bank write bursts
system.mem_ctrls0.perBankWrBursts::0            18179                       # Per bank write bursts
system.mem_ctrls0.perBankWrBursts::1            18201                       # Per bank write bursts
system.mem_ctrls0.perBankWrBursts::2            18201                       # Per bank write bursts
system.mem_ctrls0.perBankWrBursts::3            18267                       # Per bank write bursts
system.mem_ctrls0.perBankWrBursts::4            18234                       # Per bank write bursts
system.mem_ctrls0.perBankWrBursts::5            18250                       # Per bank write bursts
system.mem_ctrls0.perBankWrBursts::6            18359                       # Per bank write bursts
system.mem_ctrls0.perBankWrBursts::7            18375                       # Per bank write bursts
system.mem_ctrls0.perBankWrBursts::8            18019                       # Per bank write bursts
system.mem_ctrls0.perBankWrBursts::9            18145                       # Per bank write bursts
system.mem_ctrls0.perBankWrBursts::10           17984                       # Per bank write bursts
system.mem_ctrls0.perBankWrBursts::11           18072                       # Per bank write bursts
system.mem_ctrls0.perBankWrBursts::12           18028                       # Per bank write bursts
system.mem_ctrls0.perBankWrBursts::13           18036                       # Per bank write bursts
system.mem_ctrls0.perBankWrBursts::14           18225                       # Per bank write bursts
system.mem_ctrls0.perBankWrBursts::15           18139                       # Per bank write bursts
system.mem_ctrls0.numRdRetry                        0                       # Number of times read queue was full causing retry
system.mem_ctrls0.numWrRetry                     1378                       # Number of times write queue was full causing retry
system.mem_ctrls0.totGap                 143156884500                       # Total gap between requests
system.mem_ctrls0.readPktSize::0                    0                       # Read request sizes (log2)
system.mem_ctrls0.readPktSize::1                    0                       # Read request sizes (log2)
system.mem_ctrls0.readPktSize::2                    0                       # Read request sizes (log2)
system.mem_ctrls0.readPktSize::3                    0                       # Read request sizes (log2)
system.mem_ctrls0.readPktSize::4                    0                       # Read request sizes (log2)
system.mem_ctrls0.readPktSize::5                    0                       # Read request sizes (log2)
system.mem_ctrls0.readPktSize::6               597830                       # Read request sizes (log2)
system.mem_ctrls0.writePktSize::0                   0                       # Write request sizes (log2)
system.mem_ctrls0.writePktSize::1                   0                       # Write request sizes (log2)
system.mem_ctrls0.writePktSize::2                   0                       # Write request sizes (log2)
system.mem_ctrls0.writePktSize::3                   0                       # Write request sizes (log2)
system.mem_ctrls0.writePktSize::4                   0                       # Write request sizes (log2)
system.mem_ctrls0.writePktSize::5                   0                       # Write request sizes (log2)
system.mem_ctrls0.writePktSize::6              290715                       # Write request sizes (log2)
system.mem_ctrls0.rdQLenPdf::0                 287095                       # What read queue length does an incoming req see
system.mem_ctrls0.rdQLenPdf::1                  97017                       # What read queue length does an incoming req see
system.mem_ctrls0.rdQLenPdf::2                  64073                       # What read queue length does an incoming req see
system.mem_ctrls0.rdQLenPdf::3                  47517                       # What read queue length does an incoming req see
system.mem_ctrls0.rdQLenPdf::4                  34453                       # What read queue length does an incoming req see
system.mem_ctrls0.rdQLenPdf::5                  24534                       # What read queue length does an incoming req see
system.mem_ctrls0.rdQLenPdf::6                  16773                       # What read queue length does an incoming req see
system.mem_ctrls0.rdQLenPdf::7                  10875                       # What read queue length does an incoming req see
system.mem_ctrls0.rdQLenPdf::8                   5593                       # What read queue length does an incoming req see
system.mem_ctrls0.rdQLenPdf::9                   3900                       # What read queue length does an incoming req see
system.mem_ctrls0.rdQLenPdf::10                  2477                       # What read queue length does an incoming req see
system.mem_ctrls0.rdQLenPdf::11                  1568                       # What read queue length does an incoming req see
system.mem_ctrls0.rdQLenPdf::12                   928                       # What read queue length does an incoming req see
system.mem_ctrls0.rdQLenPdf::13                   507                       # What read queue length does an incoming req see
system.mem_ctrls0.rdQLenPdf::14                   225                       # What read queue length does an incoming req see
system.mem_ctrls0.rdQLenPdf::15                   109                       # What read queue length does an incoming req see
system.mem_ctrls0.rdQLenPdf::16                    43                       # What read queue length does an incoming req see
system.mem_ctrls0.rdQLenPdf::17                    34                       # What read queue length does an incoming req see
system.mem_ctrls0.rdQLenPdf::18                    18                       # What read queue length does an incoming req see
system.mem_ctrls0.rdQLenPdf::19                     9                       # What read queue length does an incoming req see
system.mem_ctrls0.rdQLenPdf::20                     5                       # What read queue length does an incoming req see
system.mem_ctrls0.rdQLenPdf::21                     3                       # What read queue length does an incoming req see
system.mem_ctrls0.rdQLenPdf::22                     2                       # What read queue length does an incoming req see
system.mem_ctrls0.rdQLenPdf::23                     2                       # What read queue length does an incoming req see
system.mem_ctrls0.rdQLenPdf::24                     1                       # What read queue length does an incoming req see
system.mem_ctrls0.rdQLenPdf::25                     1                       # What read queue length does an incoming req see
system.mem_ctrls0.rdQLenPdf::26                     0                       # What read queue length does an incoming req see
system.mem_ctrls0.rdQLenPdf::27                     0                       # What read queue length does an incoming req see
system.mem_ctrls0.rdQLenPdf::28                     0                       # What read queue length does an incoming req see
system.mem_ctrls0.rdQLenPdf::29                     0                       # What read queue length does an incoming req see
system.mem_ctrls0.rdQLenPdf::30                     0                       # What read queue length does an incoming req see
system.mem_ctrls0.rdQLenPdf::31                     0                       # What read queue length does an incoming req see
system.mem_ctrls0.wrQLenPdf::0                  50200                       # What write queue length does an incoming req see
system.mem_ctrls0.wrQLenPdf::1                  55354                       # What write queue length does an incoming req see
system.mem_ctrls0.wrQLenPdf::2                  57025                       # What write queue length does an incoming req see
system.mem_ctrls0.wrQLenPdf::3                  57428                       # What write queue length does an incoming req see
system.mem_ctrls0.wrQLenPdf::4                  57336                       # What write queue length does an incoming req see
system.mem_ctrls0.wrQLenPdf::5                   6604                       # What write queue length does an incoming req see
system.mem_ctrls0.wrQLenPdf::6                   3608                       # What write queue length does an incoming req see
system.mem_ctrls0.wrQLenPdf::7                   3160                       # What write queue length does an incoming req see
system.mem_ctrls0.bytesPerActivate::samples       283468                       # Bytes accessed per row activation
system.mem_ctrls0.bytesPerActivate::mean   200.592547                       # Bytes accessed per row activation
system.mem_ctrls0.bytesPerActivate::gmean   155.423284                       # Bytes accessed per row activation
system.mem_ctrls0.bytesPerActivate::stdev   145.873428                       # Bytes accessed per row activation
system.mem_ctrls0.bytesPerActivate::0-127        89969     31.74%     31.74% # Bytes accessed per row activation
system.mem_ctrls0.bytesPerActivate::128-255        88163     31.10%     62.84% # Bytes accessed per row activation
system.mem_ctrls0.bytesPerActivate::256-383        71938     25.38%     88.22% # Bytes accessed per row activation
system.mem_ctrls0.bytesPerActivate::384-511        16974      5.99%     94.21% # Bytes accessed per row activation
system.mem_ctrls0.bytesPerActivate::512-639        12442      4.39%     98.60% # Bytes accessed per row activation
system.mem_ctrls0.bytesPerActivate::640-767         2019      0.71%     99.31% # Bytes accessed per row activation
system.mem_ctrls0.bytesPerActivate::768-895         1073      0.38%     99.69% # Bytes accessed per row activation
system.mem_ctrls0.bytesPerActivate::896-1023          547      0.19%     99.88% # Bytes accessed per row activation
system.mem_ctrls0.bytesPerActivate::1024-1151          343      0.12%    100.00% # Bytes accessed per row activation
system.mem_ctrls0.bytesPerActivate::total       283468                       # Bytes accessed per row activation
system.mem_ctrls0.rdPerTurnAround::samples        50422                       # Reads before turning the bus around for writes
system.mem_ctrls0.rdPerTurnAround::mean     11.855143                       # Reads before turning the bus around for writes
system.mem_ctrls0.rdPerTurnAround::stdev    28.954092                       # Reads before turning the bus around for writes
system.mem_ctrls0.rdPerTurnAround::0-127        49953     99.07%     99.07% # Reads before turning the bus around for writes
system.mem_ctrls0.rdPerTurnAround::128-255          424      0.84%     99.91% # Reads before turning the bus around for writes
system.mem_ctrls0.rdPerTurnAround::256-383           40      0.08%     99.99% # Reads before turning the bus around for writes
system.mem_ctrls0.rdPerTurnAround::384-511            1      0.00%     99.99% # Reads before turning the bus around for writes
system.mem_ctrls0.rdPerTurnAround::512-639            1      0.00%     99.99% # Reads before turning the bus around for writes
system.mem_ctrls0.rdPerTurnAround::768-895            2      0.00%    100.00% # Reads before turning the bus around for writes
system.mem_ctrls0.rdPerTurnAround::3968-4095            1      0.00%    100.00% # Reads before turning the bus around for writes
system.mem_ctrls0.rdPerTurnAround::total        50422                       # Reads before turning the bus around for writes
system.mem_ctrls0.wrPerTurnAround::samples        50422                       # Writes before turning the bus around for reads
system.mem_ctrls0.wrPerTurnAround::mean      5.765618                       # Writes before turning the bus around for reads
system.mem_ctrls0.wrPerTurnAround::gmean     5.578897                       # Writes before turning the bus around for reads
system.mem_ctrls0.wrPerTurnAround::stdev     1.826459                       # Writes before turning the bus around for reads
system.mem_ctrls0.wrPerTurnAround::4-7          44702     88.66%     88.66% # Writes before turning the bus around for reads
system.mem_ctrls0.wrPerTurnAround::8-11          4351      8.63%     97.28% # Writes before turning the bus around for reads
system.mem_ctrls0.wrPerTurnAround::12-15          994      1.97%     99.26% # Writes before turning the bus around for reads
system.mem_ctrls0.wrPerTurnAround::16-19          375      0.74%    100.00% # Writes before turning the bus around for reads
system.mem_ctrls0.wrPerTurnAround::total        50422                       # Writes before turning the bus around for reads
system.mem_ctrls0.totQLat                 20251749003                       # Total ticks spent queuing
system.mem_ctrls0.totMemAccLat            31459786503                       # Total ticks spent from burst creation until serviced by the DRAM
system.mem_ctrls0.totBusLat                2988810000                       # Total ticks spent in databus transfers
system.mem_ctrls0.avgQLat                    33879.28                       # Average queueing delay per DRAM burst
system.mem_ctrls0.avgBusLat                   5000.00                       # Average bus latency per DRAM burst
system.mem_ctrls0.avgMemAccLat               52629.28                       # Average memory access latency per DRAM burst
system.mem_ctrls0.avgRdBW                      267.24                       # Average DRAM read bandwidth in MiByte/s
system.mem_ctrls0.avgWrBW                      129.97                       # Average achieved write bandwidth in MiByte/s
system.mem_ctrls0.avgRdBWSys                   267.27                       # Average system read bandwidth in MiByte/s
system.mem_ctrls0.avgWrBWSys                   129.97                       # Average system write bandwidth in MiByte/s
system.mem_ctrls0.peakBW                     12800.00                       # Theoretical peak bandwidth in MiByte/s
system.mem_ctrls0.busUtil                        3.10                       # Data bus utilization in percentage
system.mem_ctrls0.busUtilRead                    2.09                       # Data bus utilization in percentage for reads
system.mem_ctrls0.busUtilWrite                   1.02                       # Data bus utilization in percentage for writes
system.mem_ctrls0.avgRdQLen                      1.32                       # Average read queue length when enqueuing
system.mem_ctrls0.avgWrQLen                      3.01                       # Average write queue length when enqueuing
system.mem_ctrls0.readRowHits                  433273                       # Number of row buffer hits during reads
system.mem_ctrls0.writeRowHits                 171723                       # Number of row buffer hits during writes
system.mem_ctrls0.readRowHitRate                72.48                       # Row buffer hit rate for reads
system.mem_ctrls0.writeRowHitRate               59.07                       # Row buffer hit rate for writes
system.mem_ctrls0.avgGap                    161113.83                       # Average gap between requests
system.mem_ctrls0.pageHitRate                   68.09                       # Row buffer hit rate, read and write combined
system.mem_ctrls0.memoryStateTime::IDLE   22708365750                       # Time in different power states
system.mem_ctrls0.memoryStateTime::REF     4780100000                       # Time in different power states
system.mem_ctrls0.memoryStateTime::PRE_PDN            0                       # Time in different power states
system.mem_ctrls0.memoryStateTime::ACT   115662014250                       # Time in different power states
system.mem_ctrls0.memoryStateTime::ACT_PDN            0                       # Time in different power states
system.mem_ctrls0.actEnergy::0             1082750760                       # Energy for activate commands per rank (pJ)
system.mem_ctrls0.actEnergy::1             1060176600                       # Energy for activate commands per rank (pJ)
system.mem_ctrls0.preEnergy::0              590786625                       # Energy for precharge commands per rank (pJ)
system.mem_ctrls0.preEnergy::1              578469375                       # Energy for precharge commands per rank (pJ)
system.mem_ctrls0.readEnergy::0            2340000000                       # Energy for read commands per rank (pJ)
system.mem_ctrls0.readEnergy::1            2322340800                       # Energy for read commands per rank (pJ)
system.mem_ctrls0.writeEnergy::0            946468800                       # Energy for write commands per rank (pJ)
system.mem_ctrls0.writeEnergy::1            937293120                       # Energy for write commands per rank (pJ)
system.mem_ctrls0.refreshEnergy::0         9349875600                       # Energy for refresh commands per rank (pJ)
system.mem_ctrls0.refreshEnergy::1         9349875600                       # Energy for refresh commands per rank (pJ)
system.mem_ctrls0.actBackEnergy::0        63274587930                       # Energy for active background per rank (pJ)
system.mem_ctrls0.actBackEnergy::1        62795124450                       # Energy for active background per rank (pJ)
system.mem_ctrls0.preBackEnergy::0        30386255250                       # Energy for precharge background per rank (pJ)
system.mem_ctrls0.preBackEnergy::1        30806837250                       # Energy for precharge background per rank (pJ)
system.mem_ctrls0.totalEnergy::0         107970724965                       # Total energy per rank (pJ)
system.mem_ctrls0.totalEnergy::1         107850117195                       # Total energy per rank (pJ)
system.mem_ctrls0.averagePower::0          754.246408                       # Core power per rank (mW)
system.mem_ctrls0.averagePower::1          753.403883                       # Core power per rank (mW)
system.mem_ctrls1.bytes_read::ruby.dir_cntrl1     37696704                       # Number of bytes read from this memory
system.mem_ctrls1.bytes_read::total          37696704                       # Number of bytes read from this memory
system.mem_ctrls1.bytes_written::ruby.dir_cntrl1     18050624                       # Number of bytes written to this memory
system.mem_ctrls1.bytes_written::total       18050624                       # Number of bytes written to this memory
system.mem_ctrls1.num_reads::ruby.dir_cntrl1       589011                       # Number of read requests responded to by this memory
system.mem_ctrls1.num_reads::total             589011                       # Number of read requests responded to by this memory
system.mem_ctrls1.num_writes::ruby.dir_cntrl1       282041                       # Number of write requests responded to by this memory
system.mem_ctrls1.num_writes::total            282041                       # Number of write requests responded to by this memory
system.mem_ctrls1.bw_read::ruby.dir_cntrl1    263323314                       # Total read bandwidth from this memory (bytes/s)
system.mem_ctrls1.bw_read::total            263323314                       # Total read bandwidth from this memory (bytes/s)
system.mem_ctrls1.bw_write::ruby.dir_cntrl1    126089276                       # Write bandwidth from this memory (bytes/s)
system.mem_ctrls1.bw_write::total           126089276                       # Write bandwidth from this memory (bytes/s)
system.mem_ctrls1.bw_total::ruby.dir_cntrl1    389412590                       # Total bandwidth to/from this memory (bytes/s)
system.mem_ctrls1.bw_total::total           389412590                       # Total bandwidth to/from this memory (bytes/s)
system.mem_ctrls1.readReqs                     589011                       # Number of read requests accepted
system.mem_ctrls1.writeReqs                    282041                       # Number of write requests accepted
system.mem_ctrls1.readBursts                   589011                       # Number of DRAM read bursts, including those serviced by the write queue
system.mem_ctrls1.writeBursts                  282041                       # Number of DRAM write bursts, including those merged in the write queue
system.mem_ctrls1.bytesReadDRAM              37692288                       # Total number of bytes read from DRAM
system.mem_ctrls1.bytesReadWrQ                   4416                       # Total number of bytes read from write queue
system.mem_ctrls1.bytesWritten               18050624                       # Total number of bytes written to DRAM
system.mem_ctrls1.bytesReadSys               37696704                       # Total read bytes from the system interface side
system.mem_ctrls1.bytesWrittenSys            18050624                       # Total written bytes from the system interface side
system.mem_ctrls1.servicedByWrQ                    69                       # Number of DRAM read bursts serviced by the write queue
system.mem_ctrls1.mergedWrBursts                    0                       # Number of DRAM write bursts merged with an existing one
system.mem_ctrls1.neitherReadNorWriteReqs            0                       # Number of requests that are neither read nor write
system.mem_ctrls1.perBankRdBursts::0            36790                       # Per bank write bursts
system.mem_ctrls1.perBankRdBursts::1            37049                       # Per bank write bursts
system.mem_ctrls1.perBankRdBursts::2            36795                       # Per bank write bursts
system.mem_ctrls1.perBankRdBursts::3            36979                       # Per bank write bursts
system.mem_ctrls1.perBankRdBursts::4            36782                       # Per bank write bursts
system.mem_ctrls1.perBankRdBursts::5            36817                       # Per bank write bursts
system.mem_ctrls1.perBankRdBursts::6            37533                       # Per bank write bursts
system.mem_ctrls1.perBankRdBursts::7            37071                       # Per bank write bursts
system.mem_ctrls1.perBankRdBursts::8            36522                       # Per bank write bursts
system.mem_ctrls1.perBankRdBursts::9            36666                       # Per bank write bursts
system.mem_ctrls1.perBankRdBursts::10           36531                       # Per bank write bursts
system.mem_ctrls1.perBankRdBursts::11           36965                       # Per bank write bursts
system.mem_ctrls1.perBankRdBursts::12           36481                       # Per bank write bursts
system.mem_ctrls1.perBankRdBursts::13           36386                       # Per bank write bursts
system.mem_ctrls1.perBankRdBursts::14           36738                       # Per bank write bursts
system.mem_ctrls1.perBankRdBursts::15           36837                       # Per bank write bursts
system.mem_ctrls1.perBankWrBursts::0            17655                       # Per bank write bursts
system.mem_ctrls1.perBankWrBursts::1            17666                       # Per bank write bursts
system.mem_ctrls1.perBankWrBursts::2            17697                       # Per bank write bursts
system.mem_ctrls1.perBankWrBursts::3            17733                       # Per bank write bursts
system.mem_ctrls1.perBankWrBursts::4            17711                       # Per bank write bursts
system.mem_ctrls1.perBankWrBursts::5            17724                       # Per bank write bursts
system.mem_ctrls1.perBankWrBursts::6            17794                       # Per bank write bursts
system.mem_ctrls1.perBankWrBursts::7            17811                       # Per bank write bursts
system.mem_ctrls1.perBankWrBursts::8            17488                       # Per bank write bursts
system.mem_ctrls1.perBankWrBursts::9            17595                       # Per bank write bursts
system.mem_ctrls1.perBankWrBursts::10           17426                       # Per bank write bursts
system.mem_ctrls1.perBankWrBursts::11           17533                       # Per bank write bursts
system.mem_ctrls1.perBankWrBursts::12           17501                       # Per bank write bursts
system.mem_ctrls1.perBankWrBursts::13           17489                       # Per bank write bursts
system.mem_ctrls1.perBankWrBursts::14           17620                       # Per bank write bursts
system.mem_ctrls1.perBankWrBursts::15           17598                       # Per bank write bursts
system.mem_ctrls1.numRdRetry                        0                       # Number of times read queue was full causing retry
system.mem_ctrls1.numWrRetry                     1165                       # Number of times write queue was full causing retry
system.mem_ctrls1.totGap                 143156635000                       # Total gap between requests
system.mem_ctrls1.readPktSize::0                    0                       # Read request sizes (log2)
system.mem_ctrls1.readPktSize::1                    0                       # Read request sizes (log2)
system.mem_ctrls1.readPktSize::2                    0                       # Read request sizes (log2)
system.mem_ctrls1.readPktSize::3                    0                       # Read request sizes (log2)
system.mem_ctrls1.readPktSize::4                    0                       # Read request sizes (log2)
system.mem_ctrls1.readPktSize::5                    0                       # Read request sizes (log2)
system.mem_ctrls1.readPktSize::6               589011                       # Read request sizes (log2)
system.mem_ctrls1.writePktSize::0                   0                       # Write request sizes (log2)
system.mem_ctrls1.writePktSize::1                   0                       # Write request sizes (log2)
system.mem_ctrls1.writePktSize::2                   0                       # Write request sizes (log2)
system.mem_ctrls1.writePktSize::3                   0                       # Write request sizes (log2)
system.mem_ctrls1.writePktSize::4                   0                       # Write request sizes (log2)
system.mem_ctrls1.writePktSize::5                   0                       # Write request sizes (log2)
system.mem_ctrls1.writePktSize::6              282041                       # Write request sizes (log2)
system.mem_ctrls1.rdQLenPdf::0                 278106                       # What read queue length does an incoming req see
system.mem_ctrls1.rdQLenPdf::1                 101677                       # What read queue length does an incoming req see
system.mem_ctrls1.rdQLenPdf::2                  63262                       # What read queue length does an incoming req see
system.mem_ctrls1.rdQLenPdf::3                  46794                       # What read queue length does an incoming req see
system.mem_ctrls1.rdQLenPdf::4                  32836                       # What read queue length does an incoming req see
system.mem_ctrls1.rdQLenPdf::5                  23519                       # What read queue length does an incoming req see
system.mem_ctrls1.rdQLenPdf::6                  16470                       # What read queue length does an incoming req see
system.mem_ctrls1.rdQLenPdf::7                  10806                       # What read queue length does an incoming req see
system.mem_ctrls1.rdQLenPdf::8                   5790                       # What read queue length does an incoming req see
system.mem_ctrls1.rdQLenPdf::9                   3907                       # What read queue length does an incoming req see
system.mem_ctrls1.rdQLenPdf::10                  2472                       # What read queue length does an incoming req see
system.mem_ctrls1.rdQLenPdf::11                  1499                       # What read queue length does an incoming req see
system.mem_ctrls1.rdQLenPdf::12                   851                       # What read queue length does an incoming req see
system.mem_ctrls1.rdQLenPdf::13                   460                       # What read queue length does an incoming req see
system.mem_ctrls1.rdQLenPdf::14                   234                       # What read queue length does an incoming req see
system.mem_ctrls1.rdQLenPdf::15                   121                       # What read queue length does an incoming req see
system.mem_ctrls1.rdQLenPdf::16                    59                       # What read queue length does an incoming req see
system.mem_ctrls1.rdQLenPdf::17                    37                       # What read queue length does an incoming req see
system.mem_ctrls1.rdQLenPdf::18                    22                       # What read queue length does an incoming req see
system.mem_ctrls1.rdQLenPdf::19                    12                       # What read queue length does an incoming req see
system.mem_ctrls1.rdQLenPdf::20                     5                       # What read queue length does an incoming req see
system.mem_ctrls1.rdQLenPdf::21                     1                       # What read queue length does an incoming req see
system.mem_ctrls1.rdQLenPdf::22                     2                       # What read queue length does an incoming req see
system.mem_ctrls1.rdQLenPdf::23                     0                       # What read queue length does an incoming req see
system.mem_ctrls1.rdQLenPdf::24                     0                       # What read queue length does an incoming req see
system.mem_ctrls1.rdQLenPdf::25                     0                       # What read queue length does an incoming req see
system.mem_ctrls1.rdQLenPdf::26                     0                       # What read queue length does an incoming req see
system.mem_ctrls1.rdQLenPdf::27                     0                       # What read queue length does an incoming req see
system.mem_ctrls1.rdQLenPdf::28                     0                       # What read queue length does an incoming req see
system.mem_ctrls1.rdQLenPdf::29                     0                       # What read queue length does an incoming req see
system.mem_ctrls1.rdQLenPdf::30                     0                       # What read queue length does an incoming req see
system.mem_ctrls1.rdQLenPdf::31                     0                       # What read queue length does an incoming req see
system.mem_ctrls1.wrQLenPdf::0                  48682                       # What write queue length does an incoming req see
system.mem_ctrls1.wrQLenPdf::1                  53729                       # What write queue length does an incoming req see
system.mem_ctrls1.wrQLenPdf::2                  55680                       # What write queue length does an incoming req see
system.mem_ctrls1.wrQLenPdf::3                  56051                       # What write queue length does an incoming req see
system.mem_ctrls1.wrQLenPdf::4                  55355                       # What write queue length does an incoming req see
system.mem_ctrls1.wrQLenPdf::5                   6196                       # What write queue length does an incoming req see
system.mem_ctrls1.wrQLenPdf::6                   3391                       # What write queue length does an incoming req see
system.mem_ctrls1.wrQLenPdf::7                   2957                       # What write queue length does an incoming req see
system.mem_ctrls1.bytesPerActivate::samples       269756                       # Bytes accessed per row activation
system.mem_ctrls1.bytesPerActivate::mean   206.638177                       # Bytes accessed per row activation
system.mem_ctrls1.bytesPerActivate::gmean   160.416749                       # Bytes accessed per row activation
system.mem_ctrls1.bytesPerActivate::stdev   147.549335                       # Bytes accessed per row activation
system.mem_ctrls1.bytesPerActivate::0-127        82311     30.51%     30.51% # Bytes accessed per row activation
system.mem_ctrls1.bytesPerActivate::128-255        81628     30.26%     60.77% # Bytes accessed per row activation
system.mem_ctrls1.bytesPerActivate::256-383        72365     26.83%     87.60% # Bytes accessed per row activation
system.mem_ctrls1.bytesPerActivate::384-511        16966      6.29%     93.89% # Bytes accessed per row activation
system.mem_ctrls1.bytesPerActivate::512-639        12475      4.62%     98.51% # Bytes accessed per row activation
system.mem_ctrls1.bytesPerActivate::640-767         2074      0.77%     99.28% # Bytes accessed per row activation
system.mem_ctrls1.bytesPerActivate::768-895         1016      0.38%     99.66% # Bytes accessed per row activation
system.mem_ctrls1.bytesPerActivate::896-1023          580      0.22%     99.87% # Bytes accessed per row activation
system.mem_ctrls1.bytesPerActivate::1024-1151          341      0.13%    100.00% # Bytes accessed per row activation
system.mem_ctrls1.bytesPerActivate::total       269756                       # Bytes accessed per row activation
system.mem_ctrls1.rdPerTurnAround::samples        48888                       # Reads before turning the bus around for writes
system.mem_ctrls1.rdPerTurnAround::mean     12.046739                       # Reads before turning the bus around for writes
system.mem_ctrls1.rdPerTurnAround::stdev    27.108631                       # Reads before turning the bus around for writes
system.mem_ctrls1.rdPerTurnAround::0-127        48451     99.11%     99.11% # Reads before turning the bus around for writes
system.mem_ctrls1.rdPerTurnAround::128-255          409      0.84%     99.94% # Reads before turning the bus around for writes
system.mem_ctrls1.rdPerTurnAround::256-383           18      0.04%     99.98% # Reads before turning the bus around for writes
system.mem_ctrls1.rdPerTurnAround::384-511            2      0.00%     99.98% # Reads before turning the bus around for writes
system.mem_ctrls1.rdPerTurnAround::512-639            3      0.01%     99.99% # Reads before turning the bus around for writes
system.mem_ctrls1.rdPerTurnAround::768-895            3      0.01%    100.00% # Reads before turning the bus around for writes
system.mem_ctrls1.rdPerTurnAround::1152-1279            1      0.00%    100.00% # Reads before turning the bus around for writes
system.mem_ctrls1.rdPerTurnAround::2816-2943            1      0.00%    100.00% # Reads before turning the bus around for writes
system.mem_ctrls1.rdPerTurnAround::total        48888                       # Reads before turning the bus around for writes
system.mem_ctrls1.wrPerTurnAround::samples        48888                       # Writes before turning the bus around for reads
system.mem_ctrls1.wrPerTurnAround::mean      5.769125                       # Writes before turning the bus around for reads
system.mem_ctrls1.wrPerTurnAround::gmean     5.582159                       # Writes before turning the bus around for reads
system.mem_ctrls1.wrPerTurnAround::stdev     1.824108                       # Writes before turning the bus around for reads
system.mem_ctrls1.wrPerTurnAround::4-7          43312     88.59%     88.59% # Writes before turning the bus around for reads
system.mem_ctrls1.wrPerTurnAround::8-11          4201      8.59%     97.19% # Writes before turning the bus around for reads
system.mem_ctrls1.wrPerTurnAround::12-15         1043      2.13%     99.32% # Writes before turning the bus around for reads
system.mem_ctrls1.wrPerTurnAround::16-19          332      0.68%    100.00% # Writes before turning the bus around for reads
system.mem_ctrls1.wrPerTurnAround::total        48888                       # Writes before turning the bus around for reads
system.mem_ctrls1.totQLat                 19818822929                       # Total ticks spent queuing
system.mem_ctrls1.totMemAccLat            30861485429                       # Total ticks spent from burst creation until serviced by the DRAM
system.mem_ctrls1.totBusLat                2944710000                       # Total ticks spent in databus transfers
system.mem_ctrls1.avgQLat                    33651.57                       # Average queueing delay per DRAM burst
system.mem_ctrls1.avgBusLat                   5000.00                       # Average bus latency per DRAM burst
system.mem_ctrls1.avgMemAccLat               52401.57                       # Average memory access latency per DRAM burst
system.mem_ctrls1.avgRdBW                      263.29                       # Average DRAM read bandwidth in MiByte/s
system.mem_ctrls1.avgWrBW                      126.09                       # Average achieved write bandwidth in MiByte/s
system.mem_ctrls1.avgRdBWSys                   263.32                       # Average system read bandwidth in MiByte/s
system.mem_ctrls1.avgWrBWSys                   126.09                       # Average system write bandwidth in MiByte/s
system.mem_ctrls1.peakBW                     12800.00                       # Theoretical peak bandwidth in MiByte/s
system.mem_ctrls1.busUtil                        3.04                       # Data bus utilization in percentage
system.mem_ctrls1.busUtilRead                    2.06                       # Data bus utilization in percentage for reads
system.mem_ctrls1.busUtilWrite                   0.99                       # Data bus utilization in percentage for writes
system.mem_ctrls1.avgRdQLen                      1.32                       # Average read queue length when enqueuing
system.mem_ctrls1.avgWrQLen                      3.00                       # Average write queue length when enqueuing
system.mem_ctrls1.readRowHits                  430525                       # Number of row buffer hits during reads
system.mem_ctrls1.writeRowHits                 170692                       # Number of row buffer hits during writes
system.mem_ctrls1.readRowHitRate                73.10                       # Row buffer hit rate for reads
system.mem_ctrls1.writeRowHitRate               60.52                       # Row buffer hit rate for writes
system.mem_ctrls1.avgGap                    164349.13                       # Average gap between requests
system.mem_ctrls1.pageHitRate                   69.03                       # Row buffer hit rate, read and write combined
system.mem_ctrls1.memoryStateTime::IDLE   23247340500                       # Time in different power states
system.mem_ctrls1.memoryStateTime::REF     4780100000                       # Time in different power states
system.mem_ctrls1.memoryStateTime::PRE_PDN            0                       # Time in different power states
system.mem_ctrls1.memoryStateTime::ACT   115123039500                       # Time in different power states
system.mem_ctrls1.memoryStateTime::ACT_PDN            0                       # Time in different power states
system.mem_ctrls1.actEnergy::0             1033278120                       # Energy for activate commands per rank (pJ)
system.mem_ctrls1.actEnergy::1             1005978960                       # Energy for activate commands per rank (pJ)
system.mem_ctrls1.preEnergy::0              563792625                       # Energy for precharge commands per rank (pJ)
system.mem_ctrls1.preEnergy::1              548897250                       # Energy for precharge commands per rank (pJ)
system.mem_ctrls1.readEnergy::0            2307247800                       # Energy for read commands per rank (pJ)
system.mem_ctrls1.readEnergy::1            2286226800                       # Energy for read commands per rank (pJ)
system.mem_ctrls1.writeEnergy::0            918792720                       # Energy for write commands per rank (pJ)
system.mem_ctrls1.writeEnergy::1            908761680                       # Energy for write commands per rank (pJ)
system.mem_ctrls1.refreshEnergy::0         9349875600                       # Energy for refresh commands per rank (pJ)
system.mem_ctrls1.refreshEnergy::1         9349875600                       # Energy for refresh commands per rank (pJ)
system.mem_ctrls1.actBackEnergy::0        62040282570                       # Energy for active background per rank (pJ)
system.mem_ctrls1.actBackEnergy::1        61802065890                       # Energy for active background per rank (pJ)
system.mem_ctrls1.preBackEnergy::0        31468979250                       # Energy for precharge background per rank (pJ)
system.mem_ctrls1.preBackEnergy::1        31677941250                       # Energy for precharge background per rank (pJ)
system.mem_ctrls1.totalEnergy::0         107682248685                       # Total energy per rank (pJ)
system.mem_ctrls1.totalEnergy::1         107579747430                       # Total energy per rank (pJ)
system.mem_ctrls1.averagePower::0          752.231212                       # Core power per rank (mW)
system.mem_ctrls1.averagePower::1          751.515173                       # Core power per rank (mW)
system.mem_ctrls2.bytes_read::ruby.dir_cntrl2     37702720                       # Number of bytes read from this memory
system.mem_ctrls2.bytes_read::total          37702720                       # Number of bytes read from this memory
system.mem_ctrls2.bytes_written::ruby.dir_cntrl2     18048448                       # Number of bytes written to this memory
system.mem_ctrls2.bytes_written::total       18048448                       # Number of bytes written to this memory
system.mem_ctrls2.num_reads::ruby.dir_cntrl2       589105                       # Number of read requests responded to by this memory
system.mem_ctrls2.num_reads::total             589105                       # Number of read requests responded to by this memory
system.mem_ctrls2.num_writes::ruby.dir_cntrl2       282007                       # Number of write requests responded to by this memory
system.mem_ctrls2.num_writes::total            282007                       # Number of write requests responded to by this memory
system.mem_ctrls2.bw_read::ruby.dir_cntrl2    263365337                       # Total read bandwidth from this memory (bytes/s)
system.mem_ctrls2.bw_read::total            263365337                       # Total read bandwidth from this memory (bytes/s)
system.mem_ctrls2.bw_write::ruby.dir_cntrl2    126074076                       # Write bandwidth from this memory (bytes/s)
system.mem_ctrls2.bw_write::total           126074076                       # Write bandwidth from this memory (bytes/s)
system.mem_ctrls2.bw_total::ruby.dir_cntrl2    389439414                       # Total bandwidth to/from this memory (bytes/s)
system.mem_ctrls2.bw_total::total           389439414                       # Total bandwidth to/from this memory (bytes/s)
system.mem_ctrls2.readReqs                     589105                       # Number of read requests accepted
system.mem_ctrls2.writeReqs                    282007                       # Number of write requests accepted
system.mem_ctrls2.readBursts                   589105                       # Number of DRAM read bursts, including those serviced by the write queue
system.mem_ctrls2.writeBursts                  282007                       # Number of DRAM write bursts, including those merged in the write queue
system.mem_ctrls2.bytesReadDRAM              37701312                       # Total number of bytes read from DRAM
system.mem_ctrls2.bytesReadWrQ                   1408                       # Total number of bytes read from write queue
system.mem_ctrls2.bytesWritten               18048384                       # Total number of bytes written to DRAM
system.mem_ctrls2.bytesReadSys               37702720                       # Total read bytes from the system interface side
system.mem_ctrls2.bytesWrittenSys            18048448                       # Total written bytes from the system interface side
system.mem_ctrls2.servicedByWrQ                    22                       # Number of DRAM read bursts serviced by the write queue
system.mem_ctrls2.mergedWrBursts                    0                       # Number of DRAM write bursts merged with an existing one
system.mem_ctrls2.neitherReadNorWriteReqs            0                       # Number of requests that are neither read nor write
system.mem_ctrls2.perBankRdBursts::0            36736                       # Per bank write bursts
system.mem_ctrls2.perBankRdBursts::1            37143                       # Per bank write bursts
system.mem_ctrls2.perBankRdBursts::2            36845                       # Per bank write bursts
system.mem_ctrls2.perBankRdBursts::3            37065                       # Per bank write bursts
system.mem_ctrls2.perBankRdBursts::4            36736                       # Per bank write bursts
system.mem_ctrls2.perBankRdBursts::5            36845                       # Per bank write bursts
system.mem_ctrls2.perBankRdBursts::6            37361                       # Per bank write bursts
system.mem_ctrls2.perBankRdBursts::7            37072                       # Per bank write bursts
system.mem_ctrls2.perBankRdBursts::8            36507                       # Per bank write bursts
system.mem_ctrls2.perBankRdBursts::9            36745                       # Per bank write bursts
system.mem_ctrls2.perBankRdBursts::10           36579                       # Per bank write bursts
system.mem_ctrls2.perBankRdBursts::11           37030                       # Per bank write bursts
system.mem_ctrls2.perBankRdBursts::12           36472                       # Per bank write bursts
system.mem_ctrls2.perBankRdBursts::13           36382                       # Per bank write bursts
system.mem_ctrls2.perBankRdBursts::14           36719                       # Per bank write bursts
system.mem_ctrls2.perBankRdBursts::15           36846                       # Per bank write bursts
system.mem_ctrls2.perBankWrBursts::0            17643                       # Per bank write bursts
system.mem_ctrls2.perBankWrBursts::1            17671                       # Per bank write bursts
system.mem_ctrls2.perBankWrBursts::2            17698                       # Per bank write bursts
system.mem_ctrls2.perBankWrBursts::3            17729                       # Per bank write bursts
system.mem_ctrls2.perBankWrBursts::4            17710                       # Per bank write bursts
system.mem_ctrls2.perBankWrBursts::5            17714                       # Per bank write bursts
system.mem_ctrls2.perBankWrBursts::6            17732                       # Per bank write bursts
system.mem_ctrls2.perBankWrBursts::7            17821                       # Per bank write bursts
system.mem_ctrls2.perBankWrBursts::8            17485                       # Per bank write bursts
system.mem_ctrls2.perBankWrBursts::9            17613                       # Per bank write bursts
system.mem_ctrls2.perBankWrBursts::10           17412                       # Per bank write bursts
system.mem_ctrls2.perBankWrBursts::11           17539                       # Per bank write bursts
system.mem_ctrls2.perBankWrBursts::12           17511                       # Per bank write bursts
system.mem_ctrls2.perBankWrBursts::13           17492                       # Per bank write bursts
system.mem_ctrls2.perBankWrBursts::14           17625                       # Per bank write bursts
system.mem_ctrls2.perBankWrBursts::15           17611                       # Per bank write bursts
system.mem_ctrls2.numRdRetry                        0                       # Number of times read queue was full causing retry
system.mem_ctrls2.numWrRetry                     1317                       # Number of times write queue was full causing retry
system.mem_ctrls2.totGap                 143157444500                       # Total gap between requests
system.mem_ctrls2.readPktSize::0                    0                       # Read request sizes (log2)
system.mem_ctrls2.readPktSize::1                    0                       # Read request sizes (log2)
system.mem_ctrls2.readPktSize::2                    0                       # Read request sizes (log2)
system.mem_ctrls2.readPktSize::3                    0                       # Read request sizes (log2)
system.mem_ctrls2.readPktSize::4                    0                       # Read request sizes (log2)
system.mem_ctrls2.readPktSize::5                    0                       # Read request sizes (log2)
system.mem_ctrls2.readPktSize::6               589105                       # Read request sizes (log2)
system.mem_ctrls2.writePktSize::0                   0                       # Write request sizes (log2)
system.mem_ctrls2.writePktSize::1                   0                       # Write request sizes (log2)
system.mem_ctrls2.writePktSize::2                   0                       # Write request sizes (log2)
system.mem_ctrls2.writePktSize::3                   0                       # Write request sizes (log2)
system.mem_ctrls2.writePktSize::4                   0                       # Write request sizes (log2)
system.mem_ctrls2.writePktSize::5                   0                       # Write request sizes (log2)
system.mem_ctrls2.writePktSize::6              282007                       # Write request sizes (log2)
system.mem_ctrls2.rdQLenPdf::0                 279988                       # What read queue length does an incoming req see
system.mem_ctrls2.rdQLenPdf::1                  99713                       # What read queue length does an incoming req see
system.mem_ctrls2.rdQLenPdf::2                  62960                       # What read queue length does an incoming req see
system.mem_ctrls2.rdQLenPdf::3                  46966                       # What read queue length does an incoming req see
system.mem_ctrls2.rdQLenPdf::4                  33332                       # What read queue length does an incoming req see
system.mem_ctrls2.rdQLenPdf::5                  23890                       # What read queue length does an incoming req see
system.mem_ctrls2.rdQLenPdf::6                  16448                       # What read queue length does an incoming req see
system.mem_ctrls2.rdQLenPdf::7                  10503                       # What read queue length does an incoming req see
system.mem_ctrls2.rdQLenPdf::8                   5518                       # What read queue length does an incoming req see
system.mem_ctrls2.rdQLenPdf::9                   3895                       # What read queue length does an incoming req see
system.mem_ctrls2.rdQLenPdf::10                  2446                       # What read queue length does an incoming req see
system.mem_ctrls2.rdQLenPdf::11                  1560                       # What read queue length does an incoming req see
system.mem_ctrls2.rdQLenPdf::12                   912                       # What read queue length does an incoming req see
system.mem_ctrls2.rdQLenPdf::13                   455                       # What read queue length does an incoming req see
system.mem_ctrls2.rdQLenPdf::14                   234                       # What read queue length does an incoming req see
system.mem_ctrls2.rdQLenPdf::15                   106                       # What read queue length does an incoming req see
system.mem_ctrls2.rdQLenPdf::16                    67                       # What read queue length does an incoming req see
system.mem_ctrls2.rdQLenPdf::17                    37                       # What read queue length does an incoming req see
system.mem_ctrls2.rdQLenPdf::18                    25                       # What read queue length does an incoming req see
system.mem_ctrls2.rdQLenPdf::19                    13                       # What read queue length does an incoming req see
system.mem_ctrls2.rdQLenPdf::20                    10                       # What read queue length does an incoming req see
system.mem_ctrls2.rdQLenPdf::21                     4                       # What read queue length does an incoming req see
system.mem_ctrls2.rdQLenPdf::22                     1                       # What read queue length does an incoming req see
system.mem_ctrls2.rdQLenPdf::23                     0                       # What read queue length does an incoming req see
system.mem_ctrls2.rdQLenPdf::24                     0                       # What read queue length does an incoming req see
system.mem_ctrls2.rdQLenPdf::25                     0                       # What read queue length does an incoming req see
system.mem_ctrls2.rdQLenPdf::26                     0                       # What read queue length does an incoming req see
system.mem_ctrls2.rdQLenPdf::27                     0                       # What read queue length does an incoming req see
system.mem_ctrls2.rdQLenPdf::28                     0                       # What read queue length does an incoming req see
system.mem_ctrls2.rdQLenPdf::29                     0                       # What read queue length does an incoming req see
system.mem_ctrls2.rdQLenPdf::30                     0                       # What read queue length does an incoming req see
system.mem_ctrls2.rdQLenPdf::31                     0                       # What read queue length does an incoming req see
system.mem_ctrls2.wrQLenPdf::0                  48668                       # What write queue length does an incoming req see
system.mem_ctrls2.wrQLenPdf::1                  53633                       # What write queue length does an incoming req see
system.mem_ctrls2.wrQLenPdf::2                  55317                       # What write queue length does an incoming req see
system.mem_ctrls2.wrQLenPdf::3                  55860                       # What write queue length does an incoming req see
system.mem_ctrls2.wrQLenPdf::4                  55417                       # What write queue length does an incoming req see
system.mem_ctrls2.wrQLenPdf::5                   6388                       # What write queue length does an incoming req see
system.mem_ctrls2.wrQLenPdf::6                   3584                       # What write queue length does an incoming req see
system.mem_ctrls2.wrQLenPdf::7                   3140                       # What write queue length does an incoming req see
system.mem_ctrls2.bytesPerActivate::samples       269610                       # Bytes accessed per row activation
system.mem_ctrls2.bytesPerActivate::mean   206.776663                       # Bytes accessed per row activation
system.mem_ctrls2.bytesPerActivate::gmean   160.403962                       # Bytes accessed per row activation
system.mem_ctrls2.bytesPerActivate::stdev   147.835891                       # Bytes accessed per row activation
system.mem_ctrls2.bytesPerActivate::0-127        82672     30.66%     30.66% # Bytes accessed per row activation
system.mem_ctrls2.bytesPerActivate::128-255        81177     30.11%     60.77% # Bytes accessed per row activation
system.mem_ctrls2.bytesPerActivate::256-383        72232     26.79%     87.56% # Bytes accessed per row activation
system.mem_ctrls2.bytesPerActivate::384-511        17074      6.33%     93.90% # Bytes accessed per row activation
system.mem_ctrls2.bytesPerActivate::512-639        12431      4.61%     98.51% # Bytes accessed per row activation
system.mem_ctrls2.bytesPerActivate::640-767         2020      0.75%     99.26% # Bytes accessed per row activation
system.mem_ctrls2.bytesPerActivate::768-895         1066      0.40%     99.65% # Bytes accessed per row activation
system.mem_ctrls2.bytesPerActivate::896-1023          602      0.22%     99.88% # Bytes accessed per row activation
system.mem_ctrls2.bytesPerActivate::1024-1151          336      0.12%    100.00% # Bytes accessed per row activation
system.mem_ctrls2.bytesPerActivate::total       269610                       # Bytes accessed per row activation
system.mem_ctrls2.rdPerTurnAround::samples        48866                       # Reads before turning the bus around for writes
system.mem_ctrls2.rdPerTurnAround::mean     12.055069                       # Reads before turning the bus around for writes
system.mem_ctrls2.rdPerTurnAround::stdev    26.989622                       # Reads before turning the bus around for writes
system.mem_ctrls2.rdPerTurnAround::0-127        48406     99.06%     99.06% # Reads before turning the bus around for writes
system.mem_ctrls2.rdPerTurnAround::128-255          420      0.86%     99.92% # Reads before turning the bus around for writes
system.mem_ctrls2.rdPerTurnAround::256-383           31      0.06%     99.98% # Reads before turning the bus around for writes
system.mem_ctrls2.rdPerTurnAround::384-511            4      0.01%     99.99% # Reads before turning the bus around for writes
system.mem_ctrls2.rdPerTurnAround::512-639            2      0.00%     99.99% # Reads before turning the bus around for writes
system.mem_ctrls2.rdPerTurnAround::768-895            1      0.00%    100.00% # Reads before turning the bus around for writes
system.mem_ctrls2.rdPerTurnAround::1152-1279            1      0.00%    100.00% # Reads before turning the bus around for writes
system.mem_ctrls2.rdPerTurnAround::2816-2943            1      0.00%    100.00% # Reads before turning the bus around for writes
system.mem_ctrls2.rdPerTurnAround::total        48866                       # Reads before turning the bus around for writes
system.mem_ctrls2.wrPerTurnAround::samples        48865                       # Writes before turning the bus around for reads
system.mem_ctrls2.wrPerTurnAround::mean      5.771043                       # Writes before turning the bus around for reads
system.mem_ctrls2.wrPerTurnAround::gmean     5.584805                       # Writes before turning the bus around for reads
system.mem_ctrls2.wrPerTurnAround::stdev     1.818399                       # Writes before turning the bus around for reads
system.mem_ctrls2.wrPerTurnAround::4-7          43306     88.62%     88.62% # Writes before turning the bus around for reads
system.mem_ctrls2.wrPerTurnAround::8-11          4248      8.69%     97.32% # Writes before turning the bus around for reads
system.mem_ctrls2.wrPerTurnAround::12-15          974      1.99%     99.31% # Writes before turning the bus around for reads
system.mem_ctrls2.wrPerTurnAround::16-19          337      0.69%    100.00% # Writes before turning the bus around for reads
system.mem_ctrls2.wrPerTurnAround::total        48865                       # Writes before turning the bus around for reads
system.mem_ctrls2.totQLat                 19919813793                       # Total ticks spent queuing
system.mem_ctrls2.totMemAccLat            30965120043                       # Total ticks spent from burst creation until serviced by the DRAM
system.mem_ctrls2.totBusLat                2945415000                       # Total ticks spent in databus transfers
system.mem_ctrls2.avgQLat                    33814.95                       # Average queueing delay per DRAM burst
system.mem_ctrls2.avgBusLat                   5000.00                       # Average bus latency per DRAM burst
system.mem_ctrls2.avgMemAccLat               52564.95                       # Average memory access latency per DRAM burst
system.mem_ctrls2.avgRdBW                      263.36                       # Average DRAM read bandwidth in MiByte/s
system.mem_ctrls2.avgWrBW                      126.07                       # Average achieved write bandwidth in MiByte/s
system.mem_ctrls2.avgRdBWSys                   263.37                       # Average system read bandwidth in MiByte/s
system.mem_ctrls2.avgWrBWSys                   126.07                       # Average system write bandwidth in MiByte/s
system.mem_ctrls2.peakBW                     12800.00                       # Theoretical peak bandwidth in MiByte/s
system.mem_ctrls2.busUtil                        3.04                       # Data bus utilization in percentage
system.mem_ctrls2.busUtilRead                    2.06                       # Data bus utilization in percentage for reads
system.mem_ctrls2.busUtilWrite                   0.98                       # Data bus utilization in percentage for writes
system.mem_ctrls2.avgRdQLen                      1.31                       # Average read queue length when enqueuing
system.mem_ctrls2.avgWrQLen                      3.01                       # Average write queue length when enqueuing
system.mem_ctrls2.readRowHits                  430190                       # Number of row buffer hits during reads
system.mem_ctrls2.writeRowHits                 171281                       # Number of row buffer hits during writes
system.mem_ctrls2.readRowHitRate                73.03                       # Row buffer hit rate for reads
system.mem_ctrls2.writeRowHitRate               60.74                       # Row buffer hit rate for writes
system.mem_ctrls2.avgGap                    164338.74                       # Average gap between requests
system.mem_ctrls2.pageHitRate                   69.05                       # Row buffer hit rate, read and write combined
system.mem_ctrls2.memoryStateTime::IDLE   23320749500                       # Time in different power states
system.mem_ctrls2.memoryStateTime::REF     4780100000                       # Time in different power states
system.mem_ctrls2.memoryStateTime::PRE_PDN            0                       # Time in different power states
system.mem_ctrls2.memoryStateTime::ACT   115049630500                       # Time in different power states
system.mem_ctrls2.memoryStateTime::ACT_PDN            0                       # Time in different power states
system.mem_ctrls2.actEnergy::0             1031698080                       # Energy for activate commands per rank (pJ)
system.mem_ctrls2.actEnergy::1             1006455240                       # Energy for activate commands per rank (pJ)
system.mem_ctrls2.preEnergy::0              562930500                       # Energy for precharge commands per rank (pJ)
system.mem_ctrls2.preEnergy::1              549157125                       # Energy for precharge commands per rank (pJ)
system.mem_ctrls2.readEnergy::0            2307177600                       # Energy for read commands per rank (pJ)
system.mem_ctrls2.readEnergy::1            2287467000                       # Energy for read commands per rank (pJ)
system.mem_ctrls2.writeEnergy::0            918300240                       # Energy for write commands per rank (pJ)
system.mem_ctrls2.writeEnergy::1            909040320                       # Energy for write commands per rank (pJ)
system.mem_ctrls2.refreshEnergy::0         9349875600                       # Energy for refresh commands per rank (pJ)
system.mem_ctrls2.refreshEnergy::1         9349875600                       # Energy for refresh commands per rank (pJ)
system.mem_ctrls2.actBackEnergy::0        62343731475                       # Energy for active background per rank (pJ)
system.mem_ctrls2.actBackEnergy::1        61827811650                       # Energy for active background per rank (pJ)
system.mem_ctrls2.preBackEnergy::0        31202796000                       # Energy for precharge background per rank (pJ)
system.mem_ctrls2.preBackEnergy::1        31655357250                       # Energy for precharge background per rank (pJ)
system.mem_ctrls2.totalEnergy::0         107716509495                       # Total energy per rank (pJ)
system.mem_ctrls2.totalEnergy::1         107585164185                       # Total energy per rank (pJ)
system.mem_ctrls2.averagePower::0          752.470546                       # Core power per rank (mW)
system.mem_ctrls2.averagePower::1          751.553013                       # Core power per rank (mW)
system.mem_ctrls3.bytes_read::ruby.dir_cntrl3     37654144                       # Number of bytes read from this memory
system.mem_ctrls3.bytes_read::total          37654144                       # Number of bytes read from this memory
system.mem_ctrls3.bytes_written::ruby.dir_cntrl3     18043776                       # Number of bytes written to this memory
system.mem_ctrls3.bytes_written::total       18043776                       # Number of bytes written to this memory
system.mem_ctrls3.num_reads::ruby.dir_cntrl3       588346                       # Number of read requests responded to by this memory
system.mem_ctrls3.num_reads::total             588346                       # Number of read requests responded to by this memory
system.mem_ctrls3.num_writes::ruby.dir_cntrl3       281934                       # Number of write requests responded to by this memory
system.mem_ctrls3.num_writes::total            281934                       # Number of write requests responded to by this memory
system.mem_ctrls3.bw_read::ruby.dir_cntrl3    263026019                       # Total read bandwidth from this memory (bytes/s)
system.mem_ctrls3.bw_read::total            263026019                       # Total read bandwidth from this memory (bytes/s)
system.mem_ctrls3.bw_write::ruby.dir_cntrl3    126041441                       # Write bandwidth from this memory (bytes/s)
system.mem_ctrls3.bw_write::total           126041441                       # Write bandwidth from this memory (bytes/s)
system.mem_ctrls3.bw_total::ruby.dir_cntrl3    389067460                       # Total bandwidth to/from this memory (bytes/s)
system.mem_ctrls3.bw_total::total           389067460                       # Total bandwidth to/from this memory (bytes/s)
system.mem_ctrls3.readReqs                     588347                       # Number of read requests accepted
system.mem_ctrls3.writeReqs                    281934                       # Number of write requests accepted
system.mem_ctrls3.readBursts                   588347                       # Number of DRAM read bursts, including those serviced by the write queue
system.mem_ctrls3.writeBursts                  281934                       # Number of DRAM write bursts, including those merged in the write queue
system.mem_ctrls3.bytesReadDRAM              37653056                       # Total number of bytes read from DRAM
system.mem_ctrls3.bytesReadWrQ                   1152                       # Total number of bytes read from write queue
system.mem_ctrls3.bytesWritten               18043648                       # Total number of bytes written to DRAM
system.mem_ctrls3.bytesReadSys               37654208                       # Total read bytes from the system interface side
system.mem_ctrls3.bytesWrittenSys            18043776                       # Total written bytes from the system interface side
system.mem_ctrls3.servicedByWrQ                    18                       # Number of DRAM read bursts serviced by the write queue
system.mem_ctrls3.mergedWrBursts                    0                       # Number of DRAM write bursts merged with an existing one
system.mem_ctrls3.neitherReadNorWriteReqs            0                       # Number of requests that are neither read nor write
system.mem_ctrls3.perBankRdBursts::0            36739                       # Per bank write bursts
system.mem_ctrls3.perBankRdBursts::1            37083                       # Per bank write bursts
system.mem_ctrls3.perBankRdBursts::2            36707                       # Per bank write bursts
system.mem_ctrls3.perBankRdBursts::3            37029                       # Per bank write bursts
system.mem_ctrls3.perBankRdBursts::4            36573                       # Per bank write bursts
system.mem_ctrls3.perBankRdBursts::5            36808                       # Per bank write bursts
system.mem_ctrls3.perBankRdBursts::6            37413                       # Per bank write bursts
system.mem_ctrls3.perBankRdBursts::7            37047                       # Per bank write bursts
system.mem_ctrls3.perBankRdBursts::8            36422                       # Per bank write bursts
system.mem_ctrls3.perBankRdBursts::9            36677                       # Per bank write bursts
system.mem_ctrls3.perBankRdBursts::10           36638                       # Per bank write bursts
system.mem_ctrls3.perBankRdBursts::11           36931                       # Per bank write bursts
system.mem_ctrls3.perBankRdBursts::12           36363                       # Per bank write bursts
system.mem_ctrls3.perBankRdBursts::13           36348                       # Per bank write bursts
system.mem_ctrls3.perBankRdBursts::14           36763                       # Per bank write bursts
system.mem_ctrls3.perBankRdBursts::15           36788                       # Per bank write bursts
system.mem_ctrls3.perBankWrBursts::0            17636                       # Per bank write bursts
system.mem_ctrls3.perBankWrBursts::1            17663                       # Per bank write bursts
system.mem_ctrls3.perBankWrBursts::2            17681                       # Per bank write bursts
system.mem_ctrls3.perBankWrBursts::3            17722                       # Per bank write bursts
system.mem_ctrls3.perBankWrBursts::4            17696                       # Per bank write bursts
system.mem_ctrls3.perBankWrBursts::5            17709                       # Per bank write bursts
system.mem_ctrls3.perBankWrBursts::6            17748                       # Per bank write bursts
system.mem_ctrls3.perBankWrBursts::7            17817                       # Per bank write bursts
system.mem_ctrls3.perBankWrBursts::8            17472                       # Per bank write bursts
system.mem_ctrls3.perBankWrBursts::9            17622                       # Per bank write bursts
system.mem_ctrls3.perBankWrBursts::10           17418                       # Per bank write bursts
system.mem_ctrls3.perBankWrBursts::11           17543                       # Per bank write bursts
system.mem_ctrls3.perBankWrBursts::12           17494                       # Per bank write bursts
system.mem_ctrls3.perBankWrBursts::13           17493                       # Per bank write bursts
system.mem_ctrls3.perBankWrBursts::14           17628                       # Per bank write bursts
system.mem_ctrls3.perBankWrBursts::15           17590                       # Per bank write bursts
system.mem_ctrls3.numRdRetry                        0                       # Number of times read queue was full causing retry
system.mem_ctrls3.numWrRetry                     1069                       # Number of times write queue was full causing retry
system.mem_ctrls3.totGap                 143156740500                       # Total gap between requests
system.mem_ctrls3.readPktSize::0                    0                       # Read request sizes (log2)
system.mem_ctrls3.readPktSize::1                    0                       # Read request sizes (log2)
system.mem_ctrls3.readPktSize::2                    0                       # Read request sizes (log2)
system.mem_ctrls3.readPktSize::3                    0                       # Read request sizes (log2)
system.mem_ctrls3.readPktSize::4                    0                       # Read request sizes (log2)
system.mem_ctrls3.readPktSize::5                    0                       # Read request sizes (log2)
system.mem_ctrls3.readPktSize::6               588347                       # Read request sizes (log2)
system.mem_ctrls3.writePktSize::0                   0                       # Write request sizes (log2)
system.mem_ctrls3.writePktSize::1                   0                       # Write request sizes (log2)
system.mem_ctrls3.writePktSize::2                   0                       # Write request sizes (log2)
system.mem_ctrls3.writePktSize::3                   0                       # Write request sizes (log2)
system.mem_ctrls3.writePktSize::4                   0                       # Write request sizes (log2)
system.mem_ctrls3.writePktSize::5                   0                       # Write request sizes (log2)
system.mem_ctrls3.writePktSize::6              281934                       # Write request sizes (log2)
system.mem_ctrls3.rdQLenPdf::0                 283234                       # What read queue length does an incoming req see
system.mem_ctrls3.rdQLenPdf::1                  98055                       # What read queue length does an incoming req see
system.mem_ctrls3.rdQLenPdf::2                  63008                       # What read queue length does an incoming req see
system.mem_ctrls3.rdQLenPdf::3                  46435                       # What read queue length does an incoming req see
system.mem_ctrls3.rdQLenPdf::4                  32941                       # What read queue length does an incoming req see
system.mem_ctrls3.rdQLenPdf::5                  23551                       # What read queue length does an incoming req see
system.mem_ctrls3.rdQLenPdf::6                  15847                       # What read queue length does an incoming req see
system.mem_ctrls3.rdQLenPdf::7                  10128                       # What read queue length does an incoming req see
system.mem_ctrls3.rdQLenPdf::8                   5533                       # What read queue length does an incoming req see
system.mem_ctrls3.rdQLenPdf::9                   3890                       # What read queue length does an incoming req see
system.mem_ctrls3.rdQLenPdf::10                  2403                       # What read queue length does an incoming req see
system.mem_ctrls3.rdQLenPdf::11                  1466                       # What read queue length does an incoming req see
system.mem_ctrls3.rdQLenPdf::12                   868                       # What read queue length does an incoming req see
[...]
system.ruby.L2Cache_Controller.I_I.Ack_all::total        16460                      
system.ruby.L2Cache_Controller.S_I.Ack   |           0      0.00%      0.00% |           0      0.00%      0.00% |           0      0.00%      0.00% |           0      0.00%      0.00% |           0      0.00%      0.00% |           0      0.00%      0.00% |           0      0.00%      0.00% |           0      0.00%      0.00% |           0      0.00%      0.00% |           0      0.00%      0.00% |           0      0.00%      0.00% |           0      0.00%      0.00% |           0      0.00%      0.00% |           0      0.00%      0.00% |           0      0.00%      0.00% |           0      0.00%      0.00% |           0      0.00%      0.00% |           0      0.00%      0.00% |           0      0.00%      0.00% |           0      0.00%      0.00% |           0      0.00%      0.00% |           2     40.00%     40.00% |           0      0.00%     40.00% |           0      0.00%     40.00% |           0      0.00%     40.00% |           0      0.00%     40.00% |           1     20.00%     60.00% |           0      0.00%     60.00% |           0      0.00%     60.00% |           0      0.00%     60.00% |           0      0.00%     60.00% |           2     40.00%    100.00%
system.ruby.L2Cache_Controller.S_I.Ack::total            5                      
system.ruby.L2Cache_Controller.S_I.Ack_all |           1      5.00%      5.00% |           1      5.00%     10.00% |           1      5.00%     15.00% |           1      5.00%     20.00% |           0      0.00%     20.00% |           3     15.00%     35.00% |           2     10.00%     45.00% |           0      0.00%     45.00% |           0      0.00%     45.00% |           1      5.00%     50.00% |           0      0.00%     50.00% |           0      0.00%     50.00% |           1      5.00%     55.00% |           0      0.00%     55.00% |           1      5.00%     60.00% |           0      0.00%     60.00% |           0      0.00%     60.00% |           0      0.00%     60.00% |           1      5.00%     65.00% |           0      0.00%     65.00% |           0      0.00%     65.00% |           2     10.00%     75.00% |           0      0.00%     75.00% |           0      0.00%     75.00% |           2     10.00%     85.00% |           0      0.00%     85.00% |           1      5.00%     90.00% |           0      0.00%     90.00% |           0      0.00%     90.00% |           0      0.00%     90.00% |           0      0.00%     90.00% |           2     10.00%    100.00%
system.ruby.L2Cache_Controller.S_I.Ack_all::total           20                      
system.ruby.L2Cache_Controller.ISS.Mem_Data |       47359      3.82%      3.82% |       38489      3.11%      6.93% |       38553      3.11%     10.04% |       38423      3.10%     13.14% |       38436      3.10%     16.24% |       38450      3.10%     19.34% |       38471      3.10%     22.45% |       38430      3.10%     25.55% |       38471      3.10%     28.66% |       38523      3.11%     31.76% |       38637      3.12%     34.88% |       38465      3.10%     37.99% |       38453      3.10%     41.09% |       38469      3.10%     44.19% |       38470      3.10%     47.30% |       38336      3.09%     50.39% |       38388      3.10%     53.49% |       38364      3.10%     56.59% |       38436      3.10%     59.69% |       38372      3.10%     62.79% |       38422      3.10%     65.89% |       38517      3.11%     68.99% |       38488      3.11%     72.10% |       38356      3.10%     75.20% |       38392      3.10%     78.29% |       38438      3.10%     81.40% |       38410      3.10%     84.50% |       38342      3.09%     87.59% |       38430      3.10%     90.69% |       38421      3.10%     93.79% |       38413      3.10%     96.89% |       38517      3.11%    100.00%
system.ruby.L2Cache_Controller.ISS.Mem_Data::total      1239141                      
system.ruby.L2Cache_Controller.IS.Mem_Data |         524      3.18%      3.18% |         460      2.79%      5.97% |         481      2.92%      8.89% |         461      2.80%     11.69% |         482      2.92%     14.61% |         441      2.68%     17.29% |         476      2.89%     20.18% |         500      3.03%     23.21% |         536      3.25%     26.46% |         484      2.94%     29.40% |         504      3.06%     32.46% |         512      3.11%     35.56% |         614      3.73%     39.29% |         550      3.34%     42.63% |         513      3.11%     45.74% |         539      3.27%     49.01% |         548      3.33%     52.34% |         561      3.40%     55.74% |         542      3.29%     59.03% |         493      2.99%     62.02% |         482      2.92%     64.95% |         536      3.25%     68.20% |         502      3.05%     71.24% |         487      2.96%     74.20% |         530      3.22%     77.42% |         588      3.57%     80.98% |         527      3.20%     84.18% |         481      2.92%     87.10% |         484      2.94%     90.04% |         559      3.39%     93.43% |         550      3.34%     96.77% |         533      3.23%    100.00%
system.ruby.L2Cache_Controller.IS.Mem_Data::total        16480                      
system.ruby.L2Cache_Controller.IM.Mem_Data |       34717      3.13%      3.13% |       34634      3.12%      6.26% |       34647      3.13%      9.38% |       34648      3.13%     12.51% |       34628      3.12%     15.63% |       34636      3.12%     18.75% |       34634      3.12%     21.88% |       34629      3.12%     25.00% |       34642      3.12%     28.13% |       34639      3.12%     31.25% |       34622      3.12%     34.37% |       34643      3.12%     37.50% |       34637      3.12%     40.62% |       34633      3.12%     43.75% |       34631      3.12%     46.87% |       34627      3.12%     49.99% |       34644      3.12%     53.12% |       34649      3.13%     56.24% |       34646      3.13%     59.37% |       34635      3.12%     62.49% |       34700      3.13%     65.62% |       34686      3.13%     68.75% |       34633      3.12%     71.88% |       34638      3.12%     75.00% |       34646      3.13%     78.12% |       34636      3.12%     81.25% |       34650      3.13%     84.37% |       34645      3.12%     87.50% |       34640      3.12%     90.62% |       34648      3.13%     93.75% |       34668      3.13%     96.88% |       34634      3.12%    100.00%
system.ruby.L2Cache_Controller.IM.Mem_Data::total      1108645                      
system.ruby.L2Cache_Controller.SS_MB.Exclusive_Unblock |           2      5.26%      5.26% |           2      5.26%     10.53% |           1      2.63%     13.16% |           1      2.63%     15.79% |           0      0.00%     15.79% |           1      2.63%     18.42% |           0      0.00%     18.42% |           0      0.00%     18.42% |           0      0.00%     18.42% |           2      5.26%     23.68% |           0      0.00%     23.68% |           0      0.00%     23.68% |           5     13.16%     36.84% |           0      0.00%     36.84% |           4     10.53%     47.37% |           0      0.00%     47.37% |           0      0.00%     47.37% |           0      0.00%     47.37% |           8     21.05%     68.42% |           3      7.89%     76.32% |           1      2.63%     78.95% |           0      0.00%     78.95% |           0      0.00%     78.95% |           0      0.00%     78.95% |           3      7.89%     86.84% |           0      0.00%     86.84% |           2      5.26%     92.11% |           0      0.00%     92.11% |           2      5.26%     97.37% |           0      0.00%     97.37% |           1      2.63%    100.00% |           0      0.00%    100.00%
system.ruby.L2Cache_Controller.SS_MB.Exclusive_Unblock::total           38                      
system.ruby.L2Cache_Controller.MT_MB.L1_PUTX |           6      1.51%      1.51% |           8      2.02%      3.53% |           8      2.02%      5.54% |           7      1.76%      7.30% |           8      2.02%      9.32% |           5      1.26%     10.58% |           4      1.01%     11.59% |           6      1.51%     13.10% |          12      3.02%     16.12% |          11      2.77%     18.89% |           7      1.76%     20.65% |          18      4.53%     25.19% |          30      7.56%     32.75% |          10      2.52%     35.26% |          10      2.52%     37.78% |          14      3.53%     41.31% |          11      2.77%     44.08% |          10      2.52%     46.60% |          11      2.77%     49.37% |          18      4.53%     53.90% |          13      3.27%     57.18% |          14      3.53%     60.71% |           6      1.51%     62.22% |          47     11.84%     74.06% |          14      3.53%     77.58% |           9      2.27%     79.85% |          15      3.78%     83.63% |          26      6.55%     90.18% |          15      3.78%     93.95% |           6      1.51%     95.47% |          10      2.52%     97.98% |           8      2.02%    100.00%
system.ruby.L2Cache_Controller.MT_MB.L1_PUTX::total          397                      
system.ruby.L2Cache_Controller.MT_MB.L1_PUTX_old |           1     25.00%     25.00% |           0      0.00%     25.00% |           0      0.00%     25.00% |           0      0.00%     25.00% |           0      0.00%     25.00% |           0      0.00%     25.00% |           0      0.00%     25.00% |           0      0.00%     25.00% |           0      0.00%     25.00% |           0      0.00%     25.00% |           0      0.00%     25.00% |           0      0.00%     25.00% |           0      0.00%     25.00% |           0      0.00%     25.00% |           0      0.00%     25.00% |           1     25.00%     50.00% |           0      0.00%     50.00% |           1     25.00%     75.00% |           0      0.00%     75.00% |           0      0.00%     75.00% |           0      0.00%     75.00% |           0      0.00%     75.00% |           1     25.00%    100.00% |           0      0.00%    100.00% |           0      0.00%    100.00% |           0      0.00%    100.00% |           0      0.00%    100.00% |           0      0.00%    100.00% |           0      0.00%    100.00% |           0      0.00%    100.00% |           0      0.00%    100.00% |           0      0.00%    100.00%
system.ruby.L2Cache_Controller.MT_MB.L1_PUTX_old::total            4                      
system.ruby.L2Cache_Controller.MT_MB.Exclusive_Unblock |      223658      5.14%      5.14% |      133225      3.06%      8.20% |      131945      3.03%     11.23% |      134048      3.08%     14.31% |      132005      3.03%     17.34% |      131278      3.01%     20.35% |      131331      3.02%     23.37% |      130842      3.00%     26.37% |      131230      3.01%     29.39% |      131890      3.03%     32.42% |      133803      3.07%     35.49% |      132720      3.05%     38.54% |      131555      3.02%     41.56% |      132045      3.03%     44.59% |      130679      3.00%     47.59% |      130854      3.01%     50.60% |      131856      3.03%     53.63% |      131810      3.03%     56.65% |      132101      3.03%     59.69% |      132333      3.04%     62.73% |      132472      3.04%     65.77% |      147200      3.38%     69.15% |      140719      3.23%     72.38% |      131510      3.02%     75.40% |      131967      3.03%     78.43% |      132204      3.04%     81.47% |      131828      3.03%     84.49% |      131646      3.02%     87.52% |      132938      3.05%     90.57% |      132004      3.03%     93.60% |      135599      3.11%     96.72% |      142949      3.28%    100.00%
system.ruby.L2Cache_Controller.MT_MB.Exclusive_Unblock::total      4354244                      
system.ruby.L2Cache_Controller.MT_IIB.WB_Data |           0      0.00%      0.00% |           0      0.00%      0.00% |           0      0.00%      0.00% |           0      0.00%      0.00% |           0      0.00%      0.00% |           0      0.00%      0.00% |           0      0.00%      0.00% |           0      0.00%      0.00% |           0      0.00%      0.00% |           0      0.00%      0.00% |           0      0.00%      0.00% |           0      0.00%      0.00% |           0      0.00%      0.00% |           0      0.00%      0.00% |           0      0.00%      0.00% |           0      0.00%      0.00% |           0      0.00%      0.00% |           0      0.00%      0.00% |           0      0.00%      0.00% |           0      0.00%      0.00% |           0      0.00%      0.00% |           2     40.00%     40.00% |           0      0.00%     40.00% |           0      0.00%     40.00% |           0      0.00%     40.00% |           0      0.00%     40.00% |           1     20.00%     60.00% |           0      0.00%     60.00% |           0      0.00%     60.00% |           0      0.00%     60.00% |           0      0.00%     60.00% |           2     40.00%    100.00%
system.ruby.L2Cache_Controller.MT_IIB.WB_Data::total            5                      
system.ruby.L2Cache_Controller.MT_SB.Unblock |           0      0.00%      0.00% |           0      0.00%      0.00% |           0      0.00%      0.00% |           0      0.00%      0.00% |           0      0.00%      0.00% |           0      0.00%      0.00% |           0      0.00%      0.00% |           0      0.00%      0.00% |           0      0.00%      0.00% |           0      0.00%      0.00% |           0      0.00%      0.00% |           0      0.00%      0.00% |           0      0.00%      0.00% |           0      0.00%      0.00% |           0      0.00%      0.00% |           0      0.00%      0.00% |           0      0.00%      0.00% |           0      0.00%      0.00% |           0      0.00%      0.00% |           0      0.00%      0.00% |           0      0.00%      0.00% |           2     40.00%     40.00% |           0      0.00%     40.00% |           0      0.00%     40.00% |           0      0.00%     40.00% |           0      0.00%     40.00% |           1     20.00%     60.00% |           0      0.00%     60.00% |           0      0.00%     60.00% |           0      0.00%     60.00% |           0      0.00%     60.00% |           2     40.00%    100.00%
system.ruby.L2Cache_Controller.MT_SB.Unblock::total            5                      
system.ruby.SimicsNetworkPortInterface_Controller.MessageSend |      470902     20.67%     20.67% |     1139048     50.00%     70.67% |      668146     29.33%    100.00% |           0      0.00%    100.00% |           0      0.00%    100.00% |           0      0.00%    100.00% |           0      0.00%    100.00% |           0      0.00%    100.00% |           0      0.00%    100.00% |           0      0.00%    100.00% |           0      0.00%    100.00% |           0      0.00%    100.00% |           0      0.00%    100.00% |           0      0.00%    100.00% |           0      0.00%    100.00% |           0      0.00%    100.00% |           0      0.00%    100.00% |           0      0.00%    100.00% |           0      0.00%    100.00% |           0      0.00%    100.00% |           0      0.00%    100.00% |           0      0.00%    100.00% |           0      0.00%    100.00% |           0      0.00%    100.00% |           0      0.00%    100.00% |           0      0.00%    100.00% |           0      0.00%    100.00% |           0      0.00%    100.00% |           0      0.00%    100.00% |           0      0.00%    100.00% |           0      0.00%    100.00% |           0      0.00%    100.00%
system.ruby.SimicsNetworkPortInterface_Controller.MessageSend::total      2278096                      
system.ruby.SimicsNetworkPortInterface_Controller.MessageRecv |      470902     20.67%     20.67% |     1139048     50.00%     70.67% |      668146     29.33%    100.00% |           0      0.00%    100.00% |           0      0.00%    100.00% |           0      0.00%    100.00% |           0      0.00%    100.00% |           0      0.00%    100.00% |           0      0.00%    100.00% |           0      0.00%    100.00% |           0      0.00%    100.00% |           0      0.00%    100.00% |           0      0.00%    100.00% |           0      0.00%    100.00% |           0      0.00%    100.00% |           0      0.00%    100.00% |           0      0.00%    100.00% |           0      0.00%    100.00% |           0      0.00%    100.00% |           0      0.00%    100.00% |           0      0.00%    100.00% |           0      0.00%    100.00% |           0      0.00%    100.00% |           0      0.00%    100.00% |           0      0.00%    100.00% |           0      0.00%    100.00% |           0      0.00%    100.00% |           0      0.00%    100.00% |           0      0.00%    100.00% |           0      0.00%    100.00% |           0      0.00%    100.00% |           0      0.00%    100.00%
system.ruby.SimicsNetworkPortInterface_Controller.MessageRecv::total      2278096                      
system.ruby.SimicsNetworkPortInterface_Controller.A.MessageSend |      470902     20.67%     20.67% |     1139048     50.00%     70.67% |      668146     29.33%    100.00% |           0      0.00%    100.00% |           0      0.00%    100.00% |           0      0.00%    100.00% |           0      0.00%    100.00% |           0      0.00%    100.00% |           0      0.00%    100.00% |           0      0.00%    100.00% |           0      0.00%    100.00% |           0      0.00%    100.00% |           0      0.00%    100.00% |           0      0.00%    100.00% |           0      0.00%    100.00% |           0      0.00%    100.00% |           0      0.00%    100.00% |           0      0.00%    100.00% |           0      0.00%    100.00% |           0      0.00%    100.00% |           0      0.00%    100.00% |           0      0.00%    100.00% |           0      0.00%    100.00% |           0      0.00%    100.00% |           0      0.00%    100.00% |           0      0.00%    100.00% |           0      0.00%    100.00% |           0      0.00%    100.00% |           0      0.00%    100.00% |           0      0.00%    100.00% |           0      0.00%    100.00% |           0      0.00%    100.00%
system.ruby.SimicsNetworkPortInterface_Controller.A.MessageSend::total      2278096                      
system.ruby.SimicsNetworkPortInterface_Controller.A.MessageRecv |      470902     20.67%     20.67% |     1139048     50.00%     70.67% |      668146     29.33%    100.00% |           0      0.00%    100.00% |           0      0.00%    100.00% |           0      0.00%    100.00% |           0      0.00%    100.00% |           0      0.00%    100.00% |           0      0.00%    100.00% |           0      0.00%    100.00% |           0      0.00%    100.00% |           0      0.00%    100.00% |           0      0.00%    100.00% |           0      0.00%    100.00% |           0      0.00%    100.00% |           0      0.00%    100.00% |           0      0.00%    100.00% |           0      0.00%    100.00% |           0      0.00%    100.00% |           0      0.00%    100.00% |           0      0.00%    100.00% |           0      0.00%    100.00% |           0      0.00%    100.00% |           0      0.00%    100.00% |           0      0.00%    100.00% |           0      0.00%    100.00% |           0      0.00%    100.00% |           0      0.00%    100.00% |           0      0.00%    100.00% |           0      0.00%    100.00% |           0      0.00%    100.00% |           0      0.00%    100.00%
system.ruby.SimicsNetworkPortInterface_Controller.A.MessageRecv::total      2278096                      
system.switch_cpus.kern.inst.arm                    0                       # number of arm instructions executed
system.switch_cpus.kern.inst.quiesce                0                       # number of quiesce instructions executed

---------- End Simulation Statistics   ----------
