
---------- Begin Simulation Statistics ----------
sim_seconds                                  0.132060                       # Number of seconds simulated
sim_ticks                                132059928000                       # Number of ticks simulated
final_tick                               5308228006500                       # Number of ticks from beginning of simulation (restored from checkpoints and never reset)
sim_freq                                 1000000000000                       # Frequency of simulated ticks
host_inst_rate                                  42453                       # Simulator instruction rate (inst/s)
host_op_rate                                    73057                       # Simulator op (including micro ops) rate (op/s)
host_tick_rate                               80417014                       # Simulator tick rate (ticks/s)
host_mem_usage                               11332352                       # Number of bytes of host memory used
host_seconds                                  1642.19                       # Real time elapsed on the host
sim_insts                                    69715116                       # Number of instructions simulated
sim_ops                                     119973181                       # Number of ops (including micro ops) simulated
system.voltage_domain.voltage                       1                       # Voltage in Volts
system.clk_domain.clock                           500                       # Clock period in ticks
system.mem_ctrls0.bytes_read::ruby.dir_cntrl0     41740480                       # Number of bytes read from this memory
system.mem_ctrls0.bytes_read::total          41740480                       # Number of bytes read from this memory
system.mem_ctrls0.bytes_written::ruby.dir_cntrl0     19650880                       # Number of bytes written to this memory
system.mem_ctrls0.bytes_written::total       19650880                       # Number of bytes written to this memory
system.mem_ctrls0.num_reads::ruby.dir_cntrl0       652195                       # Number of read requests responded to by this memory
system.mem_ctrls0.num_reads::total             652195                       # Number of read requests responded to by this memory
system.mem_ctrls0.num_writes::ruby.dir_cntrl0       307045                       # Number of write requests responded to by this memory
system.mem_ctrls0.num_writes::total            307045                       # Number of write requests responded to by this memory
system.mem_ctrls0.bw_read::ruby.dir_cntrl0    316072261                       # Total read bandwidth from this memory (bytes/s)
system.mem_ctrls0.bw_read::total            316072261                       # Total read bandwidth from this memory (bytes/s)
system.mem_ctrls0.bw_write::ruby.dir_cntrl0    148802747                       # Write bandwidth from this memory (bytes/s)
system.mem_ctrls0.bw_write::total           148802747                       # Write bandwidth from this memory (bytes/s)
system.mem_ctrls0.bw_total::ruby.dir_cntrl0    464875007                       # Total bandwidth to/from this memory (bytes/s)
system.mem_ctrls0.bw_total::total           464875007                       # Total bandwidth to/from this memory (bytes/s)
system.mem_ctrls0.readReqs                     652195                       # Number of read requests accepted
system.mem_ctrls0.writeReqs                    307045                       # Number of write requests accepted
system.mem_ctrls0.readBursts                   652195                       # Number of DRAM read bursts, including those serviced by the write queue
system.mem_ctrls0.writeBursts                  307045                       # Number of DRAM write bursts, including those merged in the write queue
system.mem_ctrls0.bytesReadDRAM              41726912                       # Total number of bytes read from DRAM
system.mem_ctrls0.bytesReadWrQ                  13568                       # Total number of bytes read from write queue
system.mem_ctrls0.bytesWritten               19650688                       # Total number of bytes written to DRAM
system.mem_ctrls0.bytesReadSys               41740480                       # Total read bytes from the system interface side
system.mem_ctrls0.bytesWrittenSys            19650880                       # Total written bytes from the system interface side
system.mem_ctrls0.servicedByWrQ                   212                       # Number of DRAM read bursts serviced by the write queue
system.mem_ctrls0.mergedWrBursts                    0                       # Number of DRAM write bursts merged with an existing one
system.mem_ctrls0.neitherReadNorWriteReqs            0                       # Number of requests that are neither read nor write
system.mem_ctrls0.perBankRdBursts::0            40976                       # Per bank write bursts
system.mem_ctrls0.perBankRdBursts::1            40833                       # Per bank write bursts
system.mem_ctrls0.perBankRdBursts::2            40262                       # Per bank write bursts
system.mem_ctrls0.perBankRdBursts::3            40804                       # Per bank write bursts
system.mem_ctrls0.perBankRdBursts::4            40605                       # Per bank write bursts
system.mem_ctrls0.perBankRdBursts::5            40794                       # Per bank write bursts
system.mem_ctrls0.perBankRdBursts::6            41484                       # Per bank write bursts
system.mem_ctrls0.perBankRdBursts::7            41327                       # Per bank write bursts
system.mem_ctrls0.perBankRdBursts::8            40540                       # Per bank write bursts
system.mem_ctrls0.perBankRdBursts::9            40509                       # Per bank write bursts
system.mem_ctrls0.perBankRdBursts::10           40182                       # Per bank write bursts
system.mem_ctrls0.perBankRdBursts::11           40720                       # Per bank write bursts
system.mem_ctrls0.perBankRdBursts::12           40333                       # Per bank write bursts
system.mem_ctrls0.perBankRdBursts::13           40426                       # Per bank write bursts
system.mem_ctrls0.perBankRdBursts::14           41026                       # Per bank write bursts
system.mem_ctrls0.perBankRdBursts::15           41162                       # Per bank write bursts
system.mem_ctrls0.perBankWrBursts::0            19210                       # Per bank write bursts
system.mem_ctrls0.perBankWrBursts::1            19173                       # Per bank write bursts
system.mem_ctrls0.perBankWrBursts::2            19080                       # Per bank write bursts
system.mem_ctrls0.perBankWrBursts::3            19214                       # Per bank write bursts
system.mem_ctrls0.perBankWrBursts::4            19144                       # Per bank write bursts
system.mem_ctrls0.perBankWrBursts::5            19313                       # Per bank write bursts
system.mem_ctrls0.perBankWrBursts::6            19441                       # Per bank write bursts
system.mem_ctrls0.perBankWrBursts::7            19445                       # Per bank write bursts
system.mem_ctrls0.perBankWrBursts::8            19102                       # Per bank write bursts
system.mem_ctrls0.perBankWrBursts::9            19212                       # Per bank write bursts
system.mem_ctrls0.perBankWrBursts::10           18950                       # Per bank write bursts
system.mem_ctrls0.perBankWrBursts::11           19087                       # Per bank write bursts
system.mem_ctrls0.perBankWrBursts::12           19038                       # Per bank write bursts
system.mem_ctrls0.perBankWrBursts::13           19109                       # Per bank write bursts
system.mem_ctrls0.perBankWrBursts::14           19317                       # Per bank write bursts
system.mem_ctrls0.perBankWrBursts::15           19207                       # Per bank write bursts
system.mem_ctrls0.numRdRetry                      294                       # Number of times read queue was full causing retry
system.mem_ctrls0.numWrRetry                     4453                       # Number of times write queue was full causing retry
system.mem_ctrls0.totGap                 132059428000                       # Total gap between requests
system.mem_ctrls0.readPktSize::0                    0                       # Read request sizes (log2)
system.mem_ctrls0.readPktSize::1                    0                       # Read request sizes (log2)
system.mem_ctrls0.readPktSize::2                    0                       # Read request sizes (log2)
system.mem_ctrls0.readPktSize::3                    0                       # Read request sizes (log2)
system.mem_ctrls0.readPktSize::4                    0                       # Read request sizes (log2)
system.mem_ctrls0.readPktSize::5                    0                       # Read request sizes (log2)
system.mem_ctrls0.readPktSize::6               652195                       # Read request sizes (log2)
system.mem_ctrls0.writePktSize::0                   0                       # Write request sizes (log2)
system.mem_ctrls0.writePktSize::1                   0                       # Write request sizes (log2)
system.mem_ctrls0.writePktSize::2                   0                       # Write request sizes (log2)
system.mem_ctrls0.writePktSize::3                   0                       # Write request sizes (log2)
system.mem_ctrls0.writePktSize::4                   0                       # Write request sizes (log2)
system.mem_ctrls0.writePktSize::5                   0                       # Write request sizes (log2)
system.mem_ctrls0.writePktSize::6              307045                       # Write request sizes (log2)
system.mem_ctrls0.rdQLenPdf::0                 273225                       # What read queue length does an incoming req see
system.mem_ctrls0.rdQLenPdf::1                  93947                       # What read queue length does an incoming req see
system.mem_ctrls0.rdQLenPdf::2                  68405                       # What read queue length does an incoming req see
system.mem_ctrls0.rdQLenPdf::3                  55181                       # What read queue length does an incoming req see
system.mem_ctrls0.rdQLenPdf::4                  42741                       # What read queue length does an incoming req see
system.mem_ctrls0.rdQLenPdf::5                  32796                       # What read queue length does an incoming req see
system.mem_ctrls0.rdQLenPdf::6                  24310                       # What read queue length does an incoming req see
system.mem_ctrls0.rdQLenPdf::7                  16985                       # What read queue length does an incoming req see
system.mem_ctrls0.rdQLenPdf::8                  10985                       # What read queue length does an incoming req see
system.mem_ctrls0.rdQLenPdf::9                   7940                       # What read queue length does an incoming req see
system.mem_ctrls0.rdQLenPdf::10                  5861                       # What read queue length does an incoming req see
system.mem_ctrls0.rdQLenPdf::11                  4350                       # What read queue length does an incoming req see
system.mem_ctrls0.rdQLenPdf::12                  3236                       # What read queue length does an incoming req see
system.mem_ctrls0.rdQLenPdf::13                  2350                       # What read queue length does an incoming req see
system.mem_ctrls0.rdQLenPdf::14                  1803                       # What read queue length does an incoming req see
system.mem_ctrls0.rdQLenPdf::15                  1479                       # What read queue length does an incoming req see
system.mem_ctrls0.rdQLenPdf::16                  1114                       # What read queue length does an incoming req see
system.mem_ctrls0.rdQLenPdf::17                   894                       # What read queue length does an incoming req see
system.mem_ctrls0.rdQLenPdf::18                   747                       # What read queue length does an incoming req see
system.mem_ctrls0.rdQLenPdf::19                   654                       # What read queue length does an incoming req see
system.mem_ctrls0.rdQLenPdf::20                   523                       # What read queue length does an incoming req see
system.mem_ctrls0.rdQLenPdf::21                   446                       # What read queue length does an incoming req see
system.mem_ctrls0.rdQLenPdf::22                   384                       # What read queue length does an incoming req see
system.mem_ctrls0.rdQLenPdf::23                   296                       # What read queue length does an incoming req see
system.mem_ctrls0.rdQLenPdf::24                   225                       # What read queue length does an incoming req see
system.mem_ctrls0.rdQLenPdf::25                   186                       # What read queue length does an incoming req see
system.mem_ctrls0.rdQLenPdf::26                   156                       # What read queue length does an incoming req see
system.mem_ctrls0.rdQLenPdf::27                   116                       # What read queue length does an incoming req see
system.mem_ctrls0.rdQLenPdf::28                   105                       # What read queue length does an incoming req see
system.mem_ctrls0.rdQLenPdf::29                    91                       # What read queue length does an incoming req see
system.mem_ctrls0.rdQLenPdf::30                    80                       # What read queue length does an incoming req see
system.mem_ctrls0.rdQLenPdf::31                   372                       # What read queue length does an incoming req see
system.mem_ctrls0.wrQLenPdf::0                  51311                       # What write queue length does an incoming req see
system.mem_ctrls0.wrQLenPdf::1                  55662                       # What write queue length does an incoming req see
system.mem_ctrls0.wrQLenPdf::2                  57639                       # What write queue length does an incoming req see
system.mem_ctrls0.wrQLenPdf::3                  59209                       # What write queue length does an incoming req see
system.mem_ctrls0.wrQLenPdf::4                  59868                       # What write queue length does an incoming req see
system.mem_ctrls0.wrQLenPdf::5                   9248                       # What write queue length does an incoming req see
system.mem_ctrls0.wrQLenPdf::6                   5855                       # What write queue length does an incoming req see
system.mem_ctrls0.wrQLenPdf::7                   8253                       # What write queue length does an incoming req see
system.mem_ctrls0.bytesPerActivate::samples       285180                       # Bytes accessed per row activation
system.mem_ctrls0.bytesPerActivate::mean   215.220254                       # Bytes accessed per row activation
system.mem_ctrls0.bytesPerActivate::gmean   165.305990                       # Bytes accessed per row activation
system.mem_ctrls0.bytesPerActivate::stdev   158.133758                       # Bytes accessed per row activation
system.mem_ctrls0.bytesPerActivate::0-127        82958     29.09%     29.09% # Bytes accessed per row activation
system.mem_ctrls0.bytesPerActivate::128-255        86451     30.31%     59.40% # Bytes accessed per row activation
system.mem_ctrls0.bytesPerActivate::256-383        73360     25.72%     85.13% # Bytes accessed per row activation
system.mem_ctrls0.bytesPerActivate::384-511        19986      7.01%     92.14% # Bytes accessed per row activation
system.mem_ctrls0.bytesPerActivate::512-639        16683      5.85%     97.99% # Bytes accessed per row activation
system.mem_ctrls0.bytesPerActivate::640-767         2588      0.91%     98.89% # Bytes accessed per row activation
system.mem_ctrls0.bytesPerActivate::768-895         1589      0.56%     99.45% # Bytes accessed per row activation
system.mem_ctrls0.bytesPerActivate::896-1023         1093      0.38%     99.83% # Bytes accessed per row activation
system.mem_ctrls0.bytesPerActivate::1024-1151          472      0.17%    100.00% # Bytes accessed per row activation
system.mem_ctrls0.bytesPerActivate::total       285180                       # Bytes accessed per row activation
system.mem_ctrls0.rdPerTurnAround::samples        51823                       # Reads before turning the bus around for writes
system.mem_ctrls0.rdPerTurnAround::mean     12.580862                       # Reads before turning the bus around for writes
system.mem_ctrls0.rdPerTurnAround::stdev    39.896616                       # Reads before turning the bus around for writes
system.mem_ctrls0.rdPerTurnAround::0-127        51403     99.19%     99.19% # Reads before turning the bus around for writes
system.mem_ctrls0.rdPerTurnAround::128-255          263      0.51%     99.70% # Reads before turning the bus around for writes
system.mem_ctrls0.rdPerTurnAround::256-383           61      0.12%     99.81% # Reads before turning the bus around for writes
system.mem_ctrls0.rdPerTurnAround::384-511           41      0.08%     99.89% # Reads before turning the bus around for writes
system.mem_ctrls0.rdPerTurnAround::512-639           22      0.04%     99.94% # Reads before turning the bus around for writes
system.mem_ctrls0.rdPerTurnAround::640-767           12      0.02%     99.96% # Reads before turning the bus around for writes
system.mem_ctrls0.rdPerTurnAround::768-895            8      0.02%     99.97% # Reads before turning the bus around for writes
system.mem_ctrls0.rdPerTurnAround::896-1023            4      0.01%     99.98% # Reads before turning the bus around for writes
system.mem_ctrls0.rdPerTurnAround::1024-1151            3      0.01%     99.99% # Reads before turning the bus around for writes
system.mem_ctrls0.rdPerTurnAround::1152-1279            1      0.00%     99.99% # Reads before turning the bus around for writes
system.mem_ctrls0.rdPerTurnAround::1280-1407            1      0.00%     99.99% # Reads before turning the bus around for writes
system.mem_ctrls0.rdPerTurnAround::1536-1663            2      0.00%    100.00% # Reads before turning the bus around for writes
system.mem_ctrls0.rdPerTurnAround::2304-2431            1      0.00%    100.00% # Reads before turning the bus around for writes
system.mem_ctrls0.rdPerTurnAround::3968-4095            1      0.00%    100.00% # Reads before turning the bus around for writes
system.mem_ctrls0.rdPerTurnAround::total        51823                       # Reads before turning the bus around for writes
system.mem_ctrls0.wrPerTurnAround::samples        51823                       # Writes before turning the bus around for reads
system.mem_ctrls0.wrPerTurnAround::mean      5.924821                       # Writes before turning the bus around for reads
system.mem_ctrls0.wrPerTurnAround::gmean     5.689198                       # Writes before turning the bus around for reads
system.mem_ctrls0.wrPerTurnAround::stdev     2.077421                       # Writes before turning the bus around for reads
system.mem_ctrls0.wrPerTurnAround::4-7          44754     86.36%     86.36% # Writes before turning the bus around for reads
system.mem_ctrls0.wrPerTurnAround::8-11          5196     10.03%     96.39% # Writes before turning the bus around for reads
system.mem_ctrls0.wrPerTurnAround::12-15         1175      2.27%     98.65% # Writes before turning the bus around for reads
system.mem_ctrls0.wrPerTurnAround::16-19          698      1.35%    100.00% # Writes before turning the bus around for reads
system.mem_ctrls0.wrPerTurnAround::total        51823                       # Writes before turning the bus around for reads
system.mem_ctrls0.totQLat                 25130768350                       # Total ticks spent queuing
system.mem_ctrls0.totMemAccLat            37355449600                       # Total ticks spent from burst creation until serviced by the DRAM
system.mem_ctrls0.totBusLat                3259915000                       # Total ticks spent in databus transfers
system.mem_ctrls0.avgQLat                    38545.13                       # Average queueing delay per DRAM burst
system.mem_ctrls0.avgBusLat                   5000.00                       # Average bus latency per DRAM burst
system.mem_ctrls0.avgMemAccLat               57295.13                       # Average memory access latency per DRAM burst
system.mem_ctrls0.avgRdBW                      315.97                       # Average DRAM read bandwidth in MiByte/s
system.mem_ctrls0.avgWrBW                      148.80                       # Average achieved write bandwidth in MiByte/s
system.mem_ctrls0.avgRdBWSys                   316.07                       # Average system read bandwidth in MiByte/s
system.mem_ctrls0.avgWrBWSys                   148.80                       # Average system write bandwidth in MiByte/s
system.mem_ctrls0.peakBW                     12800.00                       # Theoretical peak bandwidth in MiByte/s
system.mem_ctrls0.busUtil                        3.63                       # Data bus utilization in percentage
system.mem_ctrls0.busUtilRead                    2.47                       # Data bus utilization in percentage for reads
system.mem_ctrls0.busUtilWrite                   1.16                       # Data bus utilization in percentage for writes
system.mem_ctrls0.avgRdQLen                      1.45                       # Average read queue length when enqueuing
system.mem_ctrls0.avgWrQLen                      3.04                       # Average write queue length when enqueuing
system.mem_ctrls0.readRowHits                  491479                       # Number of row buffer hits during reads
system.mem_ctrls0.writeRowHits                 182355                       # Number of row buffer hits during writes
system.mem_ctrls0.readRowHitRate                75.38                       # Row buffer hit rate for reads
system.mem_ctrls0.writeRowHitRate               59.39                       # Row buffer hit rate for writes
system.mem_ctrls0.avgGap                    137670.89                       # Average gap between requests
system.mem_ctrls0.pageHitRate                   70.26                       # Row buffer hit rate, read and write combined
system.mem_ctrls0.memoryStateTime::IDLE   20326278500                       # Time in different power states
system.mem_ctrls0.memoryStateTime::REF     4409600000                       # Time in different power states
system.mem_ctrls0.memoryStateTime::PRE_PDN            0                       # Time in different power states
system.mem_ctrls0.memoryStateTime::ACT   107319195250                       # Time in different power states
system.mem_ctrls0.memoryStateTime::ACT_PDN            0                       # Time in different power states
system.mem_ctrls0.actEnergy::0             1083446280                       # Energy for activate commands per rank (pJ)
system.mem_ctrls0.actEnergy::1             1072423800                       # Energy for activate commands per rank (pJ)
system.mem_ctrls0.preEnergy::0              591166125                       # Energy for precharge commands per rank (pJ)
system.mem_ctrls0.preEnergy::1              585151875                       # Energy for precharge commands per rank (pJ)
system.mem_ctrls0.readEnergy::0            2551138200                       # Energy for read commands per rank (pJ)
system.mem_ctrls0.readEnergy::1            2534079600                       # Energy for read commands per rank (pJ)
system.mem_ctrls0.writeEnergy::0            997991280                       # Energy for write commands per rank (pJ)
system.mem_ctrls0.writeEnergy::1            991576080                       # Energy for write commands per rank (pJ)
system.mem_ctrls0.refreshEnergy::0         8625177600                       # Energy for refresh commands per rank (pJ)
system.mem_ctrls0.refreshEnergy::1         8625177600                       # Energy for refresh commands per rank (pJ)
system.mem_ctrls0.actBackEnergy::0        57602526480                       # Energy for active background per rank (pJ)
system.mem_ctrls0.actBackEnergy::1        57130534845                       # Energy for active background per rank (pJ)
system.mem_ctrls0.preBackEnergy::0        28704504000                       # Energy for precharge background per rank (pJ)
system.mem_ctrls0.preBackEnergy::1        29118531750                       # Energy for precharge background per rank (pJ)
system.mem_ctrls0.totalEnergy::0         100155949965                       # Total energy per rank (pJ)
system.mem_ctrls0.totalEnergy::1         100057475550                       # Total energy per rank (pJ)
system.mem_ctrls0.averagePower::0          758.440835                       # Core power per rank (mW)
system.mem_ctrls0.averagePower::1          757.695128                       # Core power per rank (mW)
system.mem_ctrls1.bytes_read::ruby.dir_cntrl1     41126144                       # Number of bytes read from this memory
system.mem_ctrls1.bytes_read::total          41126144                       # Number of bytes read from this memory
system.mem_ctrls1.bytes_written::ruby.dir_cntrl1     19067136                       # Number of bytes written to this memory
system.mem_ctrls1.bytes_written::total       19067136                       # Number of bytes written to this memory
system.mem_ctrls1.num_reads::ruby.dir_cntrl1       642596                       # Number of read requests responded to by this memory
system.mem_ctrls1.num_reads::total             642596                       # Number of read requests responded to by this memory
system.mem_ctrls1.num_writes::ruby.dir_cntrl1       297924                       # Number of write requests responded to by this memory
system.mem_ctrls1.num_writes::total            297924                       # Number of write requests responded to by this memory
system.mem_ctrls1.bw_read::ruby.dir_cntrl1    311420312                       # Total read bandwidth from this memory (bytes/s)
system.mem_ctrls1.bw_read::total            311420312                       # Total read bandwidth from this memory (bytes/s)
system.mem_ctrls1.bw_write::ruby.dir_cntrl1    144382450                       # Write bandwidth from this memory (bytes/s)
system.mem_ctrls1.bw_write::total           144382450                       # Write bandwidth from this memory (bytes/s)
system.mem_ctrls1.bw_total::ruby.dir_cntrl1    455802763                       # Total bandwidth to/from this memory (bytes/s)
system.mem_ctrls1.bw_total::total           455802763                       # Total bandwidth to/from this memory (bytes/s)
system.mem_ctrls1.readReqs                     642596                       # Number of read requests accepted
system.mem_ctrls1.writeReqs                    297924                       # Number of write requests accepted
system.mem_ctrls1.readBursts                   642596                       # Number of DRAM read bursts, including those serviced by the write queue
system.mem_ctrls1.writeBursts                  297924                       # Number of DRAM write bursts, including those merged in the write queue
system.mem_ctrls1.bytesReadDRAM              41112192                       # Total number of bytes read from DRAM
system.mem_ctrls1.bytesReadWrQ                  13952                       # Total number of bytes read from write queue
system.mem_ctrls1.bytesWritten               19067136                       # Total number of bytes written to DRAM
system.mem_ctrls1.bytesReadSys               41126144                       # Total read bytes from the system interface side
system.mem_ctrls1.bytesWrittenSys            19067136                       # Total written bytes from the system interface side
system.mem_ctrls1.servicedByWrQ                   218                       # Number of DRAM read bursts serviced by the write queue
system.mem_ctrls1.mergedWrBursts                    0                       # Number of DRAM write bursts merged with an existing one
system.mem_ctrls1.neitherReadNorWriteReqs            0                       # Number of requests that are neither read nor write
system.mem_ctrls1.perBankRdBursts::0            40300                       # Per bank write bursts
system.mem_ctrls1.perBankRdBursts::1            40336                       # Per bank write bursts
system.mem_ctrls1.perBankRdBursts::2            39712                       # Per bank write bursts
system.mem_ctrls1.perBankRdBursts::3            40094                       # Per bank write bursts
system.mem_ctrls1.perBankRdBursts::4            40109                       # Per bank write bursts
system.mem_ctrls1.perBankRdBursts::5            40152                       # Per bank write bursts
system.mem_ctrls1.perBankRdBursts::6            41241                       # Per bank write bursts
system.mem_ctrls1.perBankRdBursts::7            40647                       # Per bank write bursts
system.mem_ctrls1.perBankRdBursts::8            39802                       # Per bank write bursts
system.mem_ctrls1.perBankRdBursts::9            39969                       # Per bank write bursts
system.mem_ctrls1.perBankRdBursts::10           39464                       # Per bank write bursts
system.mem_ctrls1.perBankRdBursts::11           40076                       # Per bank write bursts
system.mem_ctrls1.perBankRdBursts::12           39764                       # Per bank write bursts
system.mem_ctrls1.perBankRdBursts::13           39901                       # Per bank write bursts
system.mem_ctrls1.perBankRdBursts::14           40427                       # Per bank write bursts
system.mem_ctrls1.perBankRdBursts::15           40384                       # Per bank write bursts
system.mem_ctrls1.perBankWrBursts::0            18645                       # Per bank write bursts
system.mem_ctrls1.perBankWrBursts::1            18661                       # Per bank write bursts
system.mem_ctrls1.perBankWrBursts::2            18548                       # Per bank write bursts
system.mem_ctrls1.perBankWrBursts::3            18621                       # Per bank write bursts
system.mem_ctrls1.perBankWrBursts::4            18643                       # Per bank write bursts
system.mem_ctrls1.perBankWrBursts::5            18720                       # Per bank write bursts
system.mem_ctrls1.perBankWrBursts::6            18871                       # Per bank write bursts
system.mem_ctrls1.perBankWrBursts::7            18860                       # Per bank write bursts
system.mem_ctrls1.perBankWrBursts::8            18498                       # Per bank write bursts
system.mem_ctrls1.perBankWrBursts::9            18703                       # Per bank write bursts
system.mem_ctrls1.perBankWrBursts::10           18340                       # Per bank write bursts
system.mem_ctrls1.perBankWrBursts::11           18513                       # Per bank write bursts
system.mem_ctrls1.perBankWrBursts::12           18497                       # Per bank write bursts
system.mem_ctrls1.perBankWrBursts::13           18545                       # Per bank write bursts
system.mem_ctrls1.perBankWrBursts::14           18671                       # Per bank write bursts
system.mem_ctrls1.perBankWrBursts::15           18588                       # Per bank write bursts
system.mem_ctrls1.numRdRetry                      293                       # Number of times read queue was full causing retry
system.mem_ctrls1.numWrRetry                     4318                       # Number of times write queue was full causing retry
system.mem_ctrls1.totGap                 132059176000                       # Total gap between requests
system.mem_ctrls1.readPktSize::0                    0                       # Read request sizes (log2)
system.mem_ctrls1.readPktSize::1                    0                       # Read request sizes (log2)
system.mem_ctrls1.readPktSize::2                    0                       # Read request sizes (log2)
system.mem_ctrls1.readPktSize::3                    0                       # Read request sizes (log2)
system.mem_ctrls1.readPktSize::4                    0                       # Read request sizes (log2)
system.mem_ctrls1.readPktSize::5                    0                       # Read request sizes (log2)
system.mem_ctrls1.readPktSize::6               642596                       # Read request sizes (log2)
system.mem_ctrls1.writePktSize::0                   0                       # Write request sizes (log2)
system.mem_ctrls1.writePktSize::1                   0                       # Write request sizes (log2)
system.mem_ctrls1.writePktSize::2                   0                       # Write request sizes (log2)
system.mem_ctrls1.writePktSize::3                   0                       # Write request sizes (log2)
system.mem_ctrls1.writePktSize::4                   0                       # Write request sizes (log2)
system.mem_ctrls1.writePktSize::5                   0                       # Write request sizes (log2)
system.mem_ctrls1.writePktSize::6              297924                       # Write request sizes (log2)
system.mem_ctrls1.rdQLenPdf::0                 266428                       # What read queue length does an incoming req see
system.mem_ctrls1.rdQLenPdf::1                  93727                       # What read queue length does an incoming req see
system.mem_ctrls1.rdQLenPdf::2                  67558                       # What read queue length does an incoming req see
system.mem_ctrls1.rdQLenPdf::3                  54620                       # What read queue length does an incoming req see
system.mem_ctrls1.rdQLenPdf::4                  42475                       # What read queue length does an incoming req see
system.mem_ctrls1.rdQLenPdf::5                  32832                       # What read queue length does an incoming req see
system.mem_ctrls1.rdQLenPdf::6                  24037                       # What read queue length does an incoming req see
system.mem_ctrls1.rdQLenPdf::7                  16676                       # What read queue length does an incoming req see
system.mem_ctrls1.rdQLenPdf::8                  10766                       # What read queue length does an incoming req see
system.mem_ctrls1.rdQLenPdf::9                   7764                       # What read queue length does an incoming req see
system.mem_ctrls1.rdQLenPdf::10                  5961                       # What read queue length does an incoming req see
system.mem_ctrls1.rdQLenPdf::11                  4354                       # What read queue length does an incoming req see
system.mem_ctrls1.rdQLenPdf::12                  3318                       # What read queue length does an incoming req see
system.mem_ctrls1.rdQLenPdf::13                  2477                       # What read queue length does an incoming req see
system.mem_ctrls1.rdQLenPdf::14                  1909                       # What read queue length does an incoming req see
system.mem_ctrls1.rdQLenPdf::15                  1465                       # What read queue length does an incoming req see
system.mem_ctrls1.rdQLenPdf::16                  1148                       # What read queue length does an incoming req see
system.mem_ctrls1.rdQLenPdf::17                   882                       # What read queue length does an incoming req see
system.mem_ctrls1.rdQLenPdf::18                   692                       # What read queue length does an incoming req see
system.mem_ctrls1.rdQLenPdf::19                   576                       # What read queue length does an incoming req see
system.mem_ctrls1.rdQLenPdf::20                   485                       # What read queue length does an incoming req see
system.mem_ctrls1.rdQLenPdf::21                   377                       # What read queue length does an incoming req see
system.mem_ctrls1.rdQLenPdf::22                   329                       # What read queue length does an incoming req see
system.mem_ctrls1.rdQLenPdf::23                   264                       # What read queue length does an incoming req see
system.mem_ctrls1.rdQLenPdf::24                   208                       # What read queue length does an incoming req see
system.mem_ctrls1.rdQLenPdf::25                   171                       # What read queue length does an incoming req see
system.mem_ctrls1.rdQLenPdf::26                   146                       # What read queue length does an incoming req see
system.mem_ctrls1.rdQLenPdf::27                   115                       # What read queue length does an incoming req see
system.mem_ctrls1.rdQLenPdf::28                    93                       # What read queue length does an incoming req see
system.mem_ctrls1.rdQLenPdf::29                    82                       # What read queue length does an incoming req see
system.mem_ctrls1.rdQLenPdf::30                    75                       # What read queue length does an incoming req see
system.mem_ctrls1.rdQLenPdf::31                   368                       # What read queue length does an incoming req see
system.mem_ctrls1.wrQLenPdf::0                  49525                       # What write queue length does an incoming req see
system.mem_ctrls1.wrQLenPdf::1                  53940                       # What write queue length does an incoming req see
system.mem_ctrls1.wrQLenPdf::2                  55926                       # What write queue length does an incoming req see
system.mem_ctrls1.wrQLenPdf::3                  57536                       # What write queue length does an incoming req see
system.mem_ctrls1.wrQLenPdf::4                  58337                       # What write queue length does an incoming req see
system.mem_ctrls1.wrQLenPdf::5                   9130                       # What write queue length does an incoming req see
system.mem_ctrls1.wrQLenPdf::6                   5714                       # What write queue length does an incoming req see
system.mem_ctrls1.wrQLenPdf::7                   7816                       # What write queue length does an incoming req see
system.mem_ctrls1.bytesPerActivate::samples       271144                       # Bytes accessed per row activation
system.mem_ctrls1.bytesPerActivate::mean   221.942230                       # Bytes accessed per row activation
system.mem_ctrls1.bytesPerActivate::gmean   170.614712                       # Bytes accessed per row activation
system.mem_ctrls1.bytesPerActivate::stdev   160.463000                       # Bytes accessed per row activation
system.mem_ctrls1.bytesPerActivate::0-127        76449     28.19%     28.19% # Bytes accessed per row activation
system.mem_ctrls1.bytesPerActivate::128-255        78808     29.06%     57.26% # Bytes accessed per row activation
system.mem_ctrls1.bytesPerActivate::256-383        73057     26.94%     84.20% # Bytes accessed per row activation
system.mem_ctrls1.bytesPerActivate::384-511        20078      7.40%     91.61% # Bytes accessed per row activation
system.mem_ctrls1.bytesPerActivate::512-639        16903      6.23%     97.84% # Bytes accessed per row activation
system.mem_ctrls1.bytesPerActivate::640-767         2636      0.97%     98.82% # Bytes accessed per row activation
system.mem_ctrls1.bytesPerActivate::768-895         1628      0.60%     99.42% # Bytes accessed per row activation
system.mem_ctrls1.bytesPerActivate::896-1023         1128      0.42%     99.83% # Bytes accessed per row activation
system.mem_ctrls1.bytesPerActivate::1024-1151          457      0.17%    100.00% # Bytes accessed per row activation
system.mem_ctrls1.bytesPerActivate::total       271144                       # Bytes accessed per row activation
system.mem_ctrls1.rdPerTurnAround::samples        50028                       # Reads before turning the bus around for writes
system.mem_ctrls1.rdPerTurnAround::mean     12.840369                       # Reads before turning the bus around for writes
system.mem_ctrls1.rdPerTurnAround::stdev    38.474152                       # Reads before turning the bus around for writes
system.mem_ctrls1.rdPerTurnAround::0-127        49610     99.16%     99.16% # Reads before turning the bus around for writes
system.mem_ctrls1.rdPerTurnAround::128-255          249      0.50%     99.66% # Reads before turning the bus around for writes
system.mem_ctrls1.rdPerTurnAround::256-383           71      0.14%     99.80% # Reads before turning the bus around for writes
system.mem_ctrls1.rdPerTurnAround::384-511           40      0.08%     99.88% # Reads before turning the bus around for writes
system.mem_ctrls1.rdPerTurnAround::512-639           24      0.05%     99.93% # Reads before turning the bus around for writes
system.mem_ctrls1.rdPerTurnAround::640-767           10      0.02%     99.95% # Reads before turning the bus around for writes
system.mem_ctrls1.rdPerTurnAround::768-895           11      0.02%     99.97% # Reads before turning the bus around for writes
system.mem_ctrls1.rdPerTurnAround::896-1023            3      0.01%     99.98% # Reads before turning the bus around for writes
system.mem_ctrls1.rdPerTurnAround::1024-1151            4      0.01%     99.99% # Reads before turning the bus around for writes
system.mem_ctrls1.rdPerTurnAround::1152-1279            1      0.00%     99.99% # Reads before turning the bus around for writes
system.mem_ctrls1.rdPerTurnAround::1280-1407            2      0.00%     99.99% # Reads before turning the bus around for writes
system.mem_ctrls1.rdPerTurnAround::1536-1663            1      0.00%    100.00% # Reads before turning the bus around for writes
system.mem_ctrls1.rdPerTurnAround::1664-1791            1      0.00%    100.00% # Reads before turning the bus around for writes
system.mem_ctrls1.rdPerTurnAround::2816-2943            1      0.00%    100.00% # Reads before turning the bus around for writes
system.mem_ctrls1.rdPerTurnAround::total        50028                       # Reads before turning the bus around for writes
system.mem_ctrls1.wrPerTurnAround::samples        50027                       # Writes before turning the bus around for reads
system.mem_ctrls1.wrPerTurnAround::mean      5.955164                       # Writes before turning the bus around for reads
system.mem_ctrls1.wrPerTurnAround::gmean     5.713359                       # Writes before turning the bus around for reads
system.mem_ctrls1.wrPerTurnAround::stdev     2.100294                       # Writes before turning the bus around for reads
system.mem_ctrls1.wrPerTurnAround::4-7          42749     85.45%     85.45% # Writes before turning the bus around for reads
system.mem_ctrls1.wrPerTurnAround::8-11          5454     10.90%     96.35% # Writes before turning the bus around for reads
system.mem_ctrls1.wrPerTurnAround::12-15         1142      2.28%     98.64% # Writes before turning the bus around for reads
system.mem_ctrls1.wrPerTurnAround::16-19          682      1.36%    100.00% # Writes before turning the bus around for reads
system.mem_ctrls1.wrPerTurnAround::total        50027                       # Writes before turning the bus around for reads
system.mem_ctrls1.totQLat                 24674963899                       # Total ticks spent queuing
system.mem_ctrls1.totMemAccLat            36719551399                       # Total ticks spent from burst creation until serviced by the DRAM
system.mem_ctrls1.totBusLat                3211890000                       # Total ticks spent in databus transfers
system.mem_ctrls1.avgQLat                    38411.91                       # Average queueing delay per DRAM burst
system.mem_ctrls1.avgBusLat                   5000.00                       # Average bus latency per DRAM burst
system.mem_ctrls1.avgMemAccLat               57161.91                       # Average memory access latency per DRAM burst
system.mem_ctrls1.avgRdBW                      311.31                       # Average DRAM read bandwidth in MiByte/s
system.mem_ctrls1.avgWrBW                      144.38                       # Average achieved write bandwidth in MiByte/s
system.mem_ctrls1.avgRdBWSys                   311.42                       # Average system read bandwidth in MiByte/s
system.mem_ctrls1.avgWrBWSys                   144.38                       # Average system write bandwidth in MiByte/s
system.mem_ctrls1.peakBW                     12800.00                       # Theoretical peak bandwidth in MiByte/s
system.mem_ctrls1.busUtil                        3.56                       # Data bus utilization in percentage
system.mem_ctrls1.busUtilRead                    2.43                       # Data bus utilization in percentage for reads
system.mem_ctrls1.busUtilWrite                   1.13                       # Data bus utilization in percentage for writes
system.mem_ctrls1.avgRdQLen                      1.45                       # Average read queue length when enqueuing
system.mem_ctrls1.avgWrQLen                      3.04                       # Average write queue length when enqueuing
system.mem_ctrls1.readRowHits                  488051                       # Number of row buffer hits during reads
system.mem_ctrls1.writeRowHits                 181099                       # Number of row buffer hits during writes
system.mem_ctrls1.readRowHitRate                75.98                       # Row buffer hit rate for reads
system.mem_ctrls1.writeRowHitRate               60.79                       # Row buffer hit rate for writes
system.mem_ctrls1.avgGap                    140410.81                       # Average gap between requests
system.mem_ctrls1.pageHitRate                   71.16                       # Row buffer hit rate, read and write combined
system.mem_ctrls1.memoryStateTime::IDLE   20822793500                       # Time in different power states
system.mem_ctrls1.memoryStateTime::REF     4409600000                       # Time in different power states
system.mem_ctrls1.memoryStateTime::PRE_PDN            0                       # Time in different power states
system.mem_ctrls1.memoryStateTime::ACT   106822680250                       # Time in different power states
system.mem_ctrls1.memoryStateTime::ACT_PDN            0                       # Time in different power states
system.mem_ctrls1.actEnergy::0             1033588080                       # Energy for activate commands per rank (pJ)
system.mem_ctrls1.actEnergy::1             1016139600                       # Energy for activate commands per rank (pJ)
system.mem_ctrls1.preEnergy::0              563961750                       # Energy for precharge commands per rank (pJ)
system.mem_ctrls1.preEnergy::1              554441250                       # Energy for precharge commands per rank (pJ)
system.mem_ctrls1.readEnergy::0            2516092800                       # Energy for read commands per rank (pJ)
system.mem_ctrls1.readEnergy::1            2494206000                       # Energy for read commands per rank (pJ)
system.mem_ctrls1.writeEnergy::0            969148800                       # Energy for write commands per rank (pJ)
system.mem_ctrls1.writeEnergy::1            961282080                       # Energy for write commands per rank (pJ)
system.mem_ctrls1.refreshEnergy::0         8625177600                       # Energy for refresh commands per rank (pJ)
system.mem_ctrls1.refreshEnergy::1         8625177600                       # Energy for refresh commands per rank (pJ)
system.mem_ctrls1.actBackEnergy::0        56393371800                       # Energy for active background per rank (pJ)
system.mem_ctrls1.actBackEnergy::1        56152001025                       # Energy for active background per rank (pJ)
system.mem_ctrls1.preBackEnergy::0        29765166000                       # Energy for precharge background per rank (pJ)
system.mem_ctrls1.preBackEnergy::1        29976894750                       # Energy for precharge background per rank (pJ)
system.mem_ctrls1.totalEnergy::0          99866506830                       # Total energy per rank (pJ)
system.mem_ctrls1.totalEnergy::1          99780142305                       # Total energy per rank (pJ)
system.mem_ctrls1.averagePower::0          756.248998                       # Core power per rank (mW)
system.mem_ctrls1.averagePower::1          755.594994                       # Core power per rank (mW)
system.mem_ctrls2.bytes_read::ruby.dir_cntrl2     41069824                       # Number of bytes read from this memory
system.mem_ctrls2.bytes_read::total          41069824                       # Number of bytes read from this memory
system.mem_ctrls2.bytes_written::ruby.dir_cntrl2     19051840                       # Number of bytes written to this memory
system.mem_ctrls2.bytes_written::total       19051840                       # Number of bytes written to this memory
system.mem_ctrls2.num_reads::ruby.dir_cntrl2       641716                       # Number of read requests responded to by this memory
system.mem_ctrls2.num_reads::total             641716                       # Number of read requests responded to by this memory
system.mem_ctrls2.num_writes::ruby.dir_cntrl2       297685                       # Number of write requests responded to by this memory
system.mem_ctrls2.num_writes::total            297685                       # Number of write requests responded to by this memory
system.mem_ctrls2.bw_read::ruby.dir_cntrl2    310993839                       # Total read bandwidth from this memory (bytes/s)
system.mem_ctrls2.bw_read::total            310993839                       # Total read bandwidth from this memory (bytes/s)
system.mem_ctrls2.bw_write::ruby.dir_cntrl2    144266624                       # Write bandwidth from this memory (bytes/s)
system.mem_ctrls2.bw_write::total           144266624                       # Write bandwidth from this memory (bytes/s)
system.mem_ctrls2.bw_total::ruby.dir_cntrl2    455260463                       # Total bandwidth to/from this memory (bytes/s)
system.mem_ctrls2.bw_total::total           455260463                       # Total bandwidth to/from this memory (bytes/s)
system.mem_ctrls2.readReqs                     641716                       # Number of read requests accepted
system.mem_ctrls2.writeReqs                    297685                       # Number of write requests accepted
system.mem_ctrls2.readBursts                   641716                       # Number of DRAM read bursts, including those serviced by the write queue
system.mem_ctrls2.writeBursts                  297685                       # Number of DRAM write bursts, including those merged in the write queue
system.mem_ctrls2.bytesReadDRAM              41058752                       # Total number of bytes read from DRAM
system.mem_ctrls2.bytesReadWrQ                  11072                       # Total number of bytes read from write queue
system.mem_ctrls2.bytesWritten               19051712                       # Total number of bytes written to DRAM
system.mem_ctrls2.bytesReadSys               41069824                       # Total read bytes from the system interface side
system.mem_ctrls2.bytesWrittenSys            19051840                       # Total written bytes from the system interface side
system.mem_ctrls2.servicedByWrQ                   173                       # Number of DRAM read bursts serviced by the write queue
system.mem_ctrls2.mergedWrBursts                    0                       # Number of DRAM write bursts merged with an existing one
system.mem_ctrls2.neitherReadNorWriteReqs            0                       # Number of requests that are neither read nor write
system.mem_ctrls2.perBankRdBursts::0            40101                       # Per bank write bursts
system.mem_ctrls2.perBankRdBursts::1            40249                       # Per bank write bursts
system.mem_ctrls2.perBankRdBursts::2            39707                       # Per bank write bursts
system.mem_ctrls2.perBankRdBursts::3            40163                       # Per bank write bursts
system.mem_ctrls2.perBankRdBursts::4            40058                       # Per bank write bursts
system.mem_ctrls2.perBankRdBursts::5            40064                       # Per bank write bursts
system.mem_ctrls2.perBankRdBursts::6            41061                       # Per bank write bursts
system.mem_ctrls2.perBankRdBursts::7            40636                       # Per bank write bursts
system.mem_ctrls2.perBankRdBursts::8            39722                       # Per bank write bursts
system.mem_ctrls2.perBankRdBursts::9            39836                       # Per bank write bursts
system.mem_ctrls2.perBankRdBursts::10           39513                       # Per bank write bursts
system.mem_ctrls2.perBankRdBursts::11           40142                       # Per bank write bursts
system.mem_ctrls2.perBankRdBursts::12           39770                       # Per bank write bursts
system.mem_ctrls2.perBankRdBursts::13           39690                       # Per bank write bursts
system.mem_ctrls2.perBankRdBursts::14           40424                       # Per bank write bursts
system.mem_ctrls2.perBankRdBursts::15           40407                       # Per bank write bursts
system.mem_ctrls2.perBankWrBursts::0            18586                       # Per bank write bursts
system.mem_ctrls2.perBankWrBursts::1            18655                       # Per bank write bursts
system.mem_ctrls2.perBankWrBursts::2            18562                       # Per bank write bursts
system.mem_ctrls2.perBankWrBursts::3            18638                       # Per bank write bursts
system.mem_ctrls2.perBankWrBursts::4            18620                       # Per bank write bursts
system.mem_ctrls2.perBankWrBursts::5            18639                       # Per bank write bursts
system.mem_ctrls2.perBankWrBursts::6            18763                       # Per bank write bursts
system.mem_ctrls2.perBankWrBursts::7            18861                       # Per bank write bursts
system.mem_ctrls2.perBankWrBursts::8            18486                       # Per bank write bursts
system.mem_ctrls2.perBankWrBursts::9            18706                       # Per bank write bursts
system.mem_ctrls2.perBankWrBursts::10           18393                       # Per bank write bursts
system.mem_ctrls2.perBankWrBursts::11           18529                       # Per bank write bursts
system.mem_ctrls2.perBankWrBursts::12           18507                       # Per bank write bursts
system.mem_ctrls2.perBankWrBursts::13           18500                       # Per bank write bursts
system.mem_ctrls2.perBankWrBursts::14           18628                       # Per bank write bursts
system.mem_ctrls2.perBankWrBursts::15           18610                       # Per bank write bursts
system.mem_ctrls2.numRdRetry                      333                       # Number of times read queue was full causing retry
system.mem_ctrls2.numWrRetry                     4505                       # Number of times write queue was full causing retry
system.mem_ctrls2.totGap                 132059885000                       # Total gap between requests
system.mem_ctrls2.readPktSize::0                    0                       # Read request sizes (log2)
system.mem_ctrls2.readPktSize::1                    0                       # Read request sizes (log2)
system.mem_ctrls2.readPktSize::2                    0                       # Read request sizes (log2)
system.mem_ctrls2.readPktSize::3                    0                       # Read request sizes (log2)
system.mem_ctrls2.readPktSize::4                    0                       # Read request sizes (log2)
system.mem_ctrls2.readPktSize::5                    0                       # Read request sizes (log2)
system.mem_ctrls2.readPktSize::6               641716                       # Read request sizes (log2)
system.mem_ctrls2.writePktSize::0                   0                       # Write request sizes (log2)
system.mem_ctrls2.writePktSize::1                   0                       # Write request sizes (log2)
system.mem_ctrls2.writePktSize::2                   0                       # Write request sizes (log2)
system.mem_ctrls2.writePktSize::3                   0                       # Write request sizes (log2)
system.mem_ctrls2.writePktSize::4                   0                       # Write request sizes (log2)
system.mem_ctrls2.writePktSize::5                   0                       # Write request sizes (log2)
system.mem_ctrls2.writePktSize::6              297685                       # Write request sizes (log2)
system.mem_ctrls2.rdQLenPdf::0                 267681                       # What read queue length does an incoming req see
system.mem_ctrls2.rdQLenPdf::1                  92462                       # What read queue length does an incoming req see
system.mem_ctrls2.rdQLenPdf::2                  67138                       # What read queue length does an incoming req see
system.mem_ctrls2.rdQLenPdf::3                  53920                       # What read queue length does an incoming req see
system.mem_ctrls2.rdQLenPdf::4                  43349                       # What read queue length does an incoming req see
system.mem_ctrls2.rdQLenPdf::5                  32649                       # What read queue length does an incoming req see
system.mem_ctrls2.rdQLenPdf::6                  24134                       # What read queue length does an incoming req see
system.mem_ctrls2.rdQLenPdf::7                  16633                       # What read queue length does an incoming req see
system.mem_ctrls2.rdQLenPdf::8                  10714                       # What read queue length does an incoming req see
system.mem_ctrls2.rdQLenPdf::9                   7892                       # What read queue length does an incoming req see
system.mem_ctrls2.rdQLenPdf::10                  5829                       # What read queue length does an incoming req see
system.mem_ctrls2.rdQLenPdf::11                  4371                       # What read queue length does an incoming req see
system.mem_ctrls2.rdQLenPdf::12                  3272                       # What read queue length does an incoming req see
system.mem_ctrls2.rdQLenPdf::13                  2430                       # What read queue length does an incoming req see
system.mem_ctrls2.rdQLenPdf::14                  1857                       # What read queue length does an incoming req see
system.mem_ctrls2.rdQLenPdf::15                  1437                       # What read queue length does an incoming req see
system.mem_ctrls2.rdQLenPdf::16                  1095                       # What read queue length does an incoming req see
system.mem_ctrls2.rdQLenPdf::17                   853                       # What read queue length does an incoming req see
system.mem_ctrls2.rdQLenPdf::18                   676                       # What read queue length does an incoming req see
system.mem_ctrls2.rdQLenPdf::19                   548                       # What read queue length does an incoming req see
system.mem_ctrls2.rdQLenPdf::20                   406                       # What read queue length does an incoming req see
system.mem_ctrls2.rdQLenPdf::21                   343                       # What read queue length does an incoming req see
system.mem_ctrls2.rdQLenPdf::22                   266                       # What read queue length does an incoming req see
system.mem_ctrls2.rdQLenPdf::23                   239                       # What read queue length does an incoming req see
system.mem_ctrls2.rdQLenPdf::24                   190                       # What read queue length does an incoming req see
system.mem_ctrls2.rdQLenPdf::25                   172                       # What read queue length does an incoming req see
system.mem_ctrls2.rdQLenPdf::26                   149                       # What read queue length does an incoming req see
system.mem_ctrls2.rdQLenPdf::27                   130                       # What read queue length does an incoming req see
system.mem_ctrls2.rdQLenPdf::28                   104                       # What read queue length does an incoming req see
system.mem_ctrls2.rdQLenPdf::29                   110                       # What read queue length does an incoming req see
system.mem_ctrls2.rdQLenPdf::30                    78                       # What read queue length does an incoming req see
system.mem_ctrls2.rdQLenPdf::31                   416                       # What read queue length does an incoming req see
system.mem_ctrls2.wrQLenPdf::0                  49615                       # What write queue length does an incoming req see
system.mem_ctrls2.wrQLenPdf::1                  53958                       # What write queue length does an incoming req see
system.mem_ctrls2.wrQLenPdf::2                  55712                       # What write queue length does an incoming req see
system.mem_ctrls2.wrQLenPdf::3                  57015                       # What write queue length does an incoming req see
system.mem_ctrls2.wrQLenPdf::4                  57252                       # What write queue length does an incoming req see
system.mem_ctrls2.wrQLenPdf::5                   9401                       # What write queue length does an incoming req see
system.mem_ctrls2.wrQLenPdf::6                   6273                       # What write queue length does an incoming req see
system.mem_ctrls2.wrQLenPdf::7                   8459                       # What write queue length does an incoming req see
system.mem_ctrls2.bytesPerActivate::samples       270617                       # Bytes accessed per row activation
system.mem_ctrls2.bytesPerActivate::mean   222.121153                       # Bytes accessed per row activation
system.mem_ctrls2.bytesPerActivate::gmean   171.006730                       # Bytes accessed per row activation
system.mem_ctrls2.bytesPerActivate::stdev   160.052826                       # Bytes accessed per row activation
system.mem_ctrls2.bytesPerActivate::0-127        75648     27.95%     27.95% # Bytes accessed per row activation
system.mem_ctrls2.bytesPerActivate::128-255        78986     29.19%     57.14% # Bytes accessed per row activation
system.mem_ctrls2.bytesPerActivate::256-383        73382     27.12%     84.26% # Bytes accessed per row activation
system.mem_ctrls2.bytesPerActivate::384-511        19910      7.36%     91.62% # Bytes accessed per row activation
system.mem_ctrls2.bytesPerActivate::512-639        16910      6.25%     97.86% # Bytes accessed per row activation
system.mem_ctrls2.bytesPerActivate::640-767         2621      0.97%     98.83% # Bytes accessed per row activation
system.mem_ctrls2.bytesPerActivate::768-895         1575      0.58%     99.41% # Bytes accessed per row activation
system.mem_ctrls2.bytesPerActivate::896-1023         1123      0.41%     99.83% # Bytes accessed per row activation
system.mem_ctrls2.bytesPerActivate::1024-1151          462      0.17%    100.00% # Bytes accessed per row activation
system.mem_ctrls2.bytesPerActivate::total       270617                       # Bytes accessed per row activation
system.mem_ctrls2.rdPerTurnAround::samples        50086                       # Reads before turning the bus around for writes
system.mem_ctrls2.rdPerTurnAround::mean     12.808749                       # Reads before turning the bus around for writes
system.mem_ctrls2.rdPerTurnAround::stdev    38.786162                       # Reads before turning the bus around for writes
system.mem_ctrls2.rdPerTurnAround::0-127        49646     99.12%     99.12% # Reads before turning the bus around for writes
system.mem_ctrls2.rdPerTurnAround::128-255          282      0.56%     99.68% # Reads before turning the bus around for writes
system.mem_ctrls2.rdPerTurnAround::256-383           56      0.11%     99.80% # Reads before turning the bus around for writes
system.mem_ctrls2.rdPerTurnAround::384-511           42      0.08%     99.88% # Reads before turning the bus around for writes
system.mem_ctrls2.rdPerTurnAround::512-639           26      0.05%     99.93% # Reads before turning the bus around for writes
system.mem_ctrls2.rdPerTurnAround::640-767            8      0.02%     99.95% # Reads before turning the bus around for writes
system.mem_ctrls2.rdPerTurnAround::768-895            9      0.02%     99.97% # Reads before turning the bus around for writes
system.mem_ctrls2.rdPerTurnAround::896-1023            6      0.01%     99.98% # Reads before turning the bus around for writes
system.mem_ctrls2.rdPerTurnAround::1024-1151            2      0.00%     99.98% # Reads before turning the bus around for writes
system.mem_ctrls2.rdPerTurnAround::1152-1279            5      0.01%     99.99% # Reads before turning the bus around for writes
system.mem_ctrls2.rdPerTurnAround::1280-1407            1      0.00%     99.99% # Reads before turning the bus around for writes
system.mem_ctrls2.rdPerTurnAround::1536-1663            2      0.00%    100.00% # Reads before turning the bus around for writes
system.mem_ctrls2.rdPerTurnAround::2816-2943            1      0.00%    100.00% # Reads before turning the bus around for writes
system.mem_ctrls2.rdPerTurnAround::total        50086                       # Reads before turning the bus around for writes
system.mem_ctrls2.wrPerTurnAround::samples        50086                       # Writes before turning the bus around for reads
system.mem_ctrls2.wrPerTurnAround::mean      5.943437                       # Writes before turning the bus around for reads
system.mem_ctrls2.wrPerTurnAround::gmean     5.703535                       # Writes before turning the bus around for reads
system.mem_ctrls2.wrPerTurnAround::stdev     2.092551                       # Writes before turning the bus around for reads
system.mem_ctrls2.wrPerTurnAround::4-7          42955     85.76%     85.76% # Writes before turning the bus around for reads
system.mem_ctrls2.wrPerTurnAround::8-11          5257     10.50%     96.26% # Writes before turning the bus around for reads
system.mem_ctrls2.wrPerTurnAround::12-15         1226      2.45%     98.71% # Writes before turning the bus around for reads
system.mem_ctrls2.wrPerTurnAround::16-19          648      1.29%    100.00% # Writes before turning the bus around for reads
system.mem_ctrls2.wrPerTurnAround::total        50086                       # Writes before turning the bus around for reads
system.mem_ctrls2.totQLat                 24708528227                       # Total ticks spent queuing
system.mem_ctrls2.totMemAccLat            36737459477                       # Total ticks spent from burst creation until serviced by the DRAM
system.mem_ctrls2.totBusLat                3207715000                       # Total ticks spent in databus transfers
system.mem_ctrls2.avgQLat                    38514.22                       # Average queueing delay per DRAM burst
system.mem_ctrls2.avgBusLat                   5000.00                       # Average bus latency per DRAM burst
system.mem_ctrls2.avgMemAccLat               57264.22                       # Average memory access latency per DRAM burst
system.mem_ctrls2.avgRdBW                      310.91                       # Average DRAM read bandwidth in MiByte/s
system.mem_ctrls2.avgWrBW                      144.27                       # Average achieved write bandwidth in MiByte/s
system.mem_ctrls2.avgRdBWSys                   310.99                       # Average system read bandwidth in MiByte/s
system.mem_ctrls2.avgWrBWSys                   144.27                       # Average system write bandwidth in MiByte/s
system.mem_ctrls2.peakBW                     12800.00                       # Theoretical peak bandwidth in MiByte/s
system.mem_ctrls2.busUtil                        3.56                       # Data bus utilization in percentage
system.mem_ctrls2.busUtilRead                    2.43                       # Data bus utilization in percentage for reads
system.mem_ctrls2.busUtilWrite                   1.13                       # Data bus utilization in percentage for writes
system.mem_ctrls2.avgRdQLen                      1.45                       # Average read queue length when enqueuing
system.mem_ctrls2.avgWrQLen                      3.03                       # Average write queue length when enqueuing
system.mem_ctrls2.readRowHits                  487468                       # Number of row buffer hits during reads
system.mem_ctrls2.writeRowHits                 181133                       # Number of row buffer hits during writes
system.mem_ctrls2.readRowHitRate                75.98                       # Row buffer hit rate for reads
system.mem_ctrls2.writeRowHitRate               60.85                       # Row buffer hit rate for writes
system.mem_ctrls2.avgGap                    140578.82                       # Average gap between requests
system.mem_ctrls2.pageHitRate                   71.19                       # Row buffer hit rate, read and write combined
system.mem_ctrls2.memoryStateTime::IDLE   20951756250                       # Time in different power states
system.mem_ctrls2.memoryStateTime::REF     4409600000                       # Time in different power states
system.mem_ctrls2.memoryStateTime::PRE_PDN            0                       # Time in different power states
system.mem_ctrls2.memoryStateTime::ACT   106693742500                       # Time in different power states
system.mem_ctrls2.memoryStateTime::ACT_PDN            0                       # Time in different power states
system.mem_ctrls2.actEnergy::0             1029271320                       # Energy for activate commands per rank (pJ)
system.mem_ctrls2.actEnergy::1             1016472240                       # Energy for activate commands per rank (pJ)
system.mem_ctrls2.preEnergy::0              561606375                       # Energy for precharge commands per rank (pJ)
system.mem_ctrls2.preEnergy::1              554622750                       # Energy for precharge commands per rank (pJ)
system.mem_ctrls2.readEnergy::0            2511802800                       # Energy for read commands per rank (pJ)
system.mem_ctrls2.readEnergy::1            2491990800                       # Energy for read commands per rank (pJ)
system.mem_ctrls2.writeEnergy::0            967600080                       # Energy for write commands per rank (pJ)
system.mem_ctrls2.writeEnergy::1            961269120                       # Energy for write commands per rank (pJ)
system.mem_ctrls2.refreshEnergy::0         8625177600                       # Energy for refresh commands per rank (pJ)
system.mem_ctrls2.refreshEnergy::1         8625177600                       # Energy for refresh commands per rank (pJ)
system.mem_ctrls2.actBackEnergy::0        56630394045                       # Energy for active background per rank (pJ)
system.mem_ctrls2.actBackEnergy::1        56113862040                       # Energy for active background per rank (pJ)
system.mem_ctrls2.preBackEnergy::0        29557266750                       # Energy for precharge background per rank (pJ)
system.mem_ctrls2.preBackEnergy::1        30010365000                       # Energy for precharge background per rank (pJ)
system.mem_ctrls2.totalEnergy::0          99883118970                       # Total energy per rank (pJ)
system.mem_ctrls2.totalEnergy::1          99773759550                       # Total energy per rank (pJ)
system.mem_ctrls2.averagePower::0          756.374652                       # Core power per rank (mW)
system.mem_ctrls2.averagePower::1          755.546517                       # Core power per rank (mW)
system.mem_ctrls3.bytes_read::ruby.dir_cntrl3     41118080                       # Number of bytes read from this memory
system.mem_ctrls3.bytes_read::total          41118080                       # Number of bytes read from this memory
system.mem_ctrls3.bytes_written::ruby.dir_cntrl3     19079040                       # Number of bytes written to this memory
system.mem_ctrls3.bytes_written::total       19079040                       # Number of bytes written to this memory
system.mem_ctrls3.num_reads::ruby.dir_cntrl3       642470                       # Number of read requests responded to by this memory
system.mem_ctrls3.num_reads::total             642470                       # Number of read requests responded to by this memory
system.mem_ctrls3.num_writes::ruby.dir_cntrl3       298110                       # Number of write requests responded to by this memory
system.mem_ctrls3.num_writes::total            298110                       # Number of write requests responded to by this memory
system.mem_ctrls3.bw_read::ruby.dir_cntrl3    311359249                       # Total read bandwidth from this memory (bytes/s)
system.mem_ctrls3.bw_read::total            311359249                       # Total read bandwidth from this memory (bytes/s)
system.mem_ctrls3.bw_write::ruby.dir_cntrl3    144472591                       # Write bandwidth from this memory (bytes/s)
system.mem_ctrls3.bw_write::total           144472591                       # Write bandwidth from this memory (bytes/s)
system.mem_ctrls3.bw_total::ruby.dir_cntrl3    455831840                       # Total bandwidth to/from this memory (bytes/s)
system.mem_ctrls3.bw_total::total           455831840                       # Total bandwidth to/from this memory (bytes/s)
system.mem_ctrls3.readReqs                     642471                       # Number of read requests accepted
system.mem_ctrls3.writeReqs                    298110                       # Number of write requests accepted
system.mem_ctrls3.readBursts                   642471                       # Number of DRAM read bursts, including those serviced by the write queue
system.mem_ctrls3.writeBursts                  298110                       # Number of DRAM write bursts, including those merged in the write queue
system.mem_ctrls3.bytesReadDRAM              41107456                       # Total number of bytes read from DRAM
system.mem_ctrls3.bytesReadWrQ                  10688                       # Total number of bytes read from write queue
system.mem_ctrls3.bytesWritten               19079040                       # Total number of bytes written to DRAM
system.mem_ctrls3.bytesReadSys               41118144                       # Total read bytes from the system interface side
system.mem_ctrls3.bytesWrittenSys            19079040                       # Total written bytes from the system interface side
system.mem_ctrls3.servicedByWrQ                   167                       # Number of DRAM read bursts serviced by the write queue
system.mem_ctrls3.mergedWrBursts                    0                       # Number of DRAM write bursts merged with an existing one
system.mem_ctrls3.neitherReadNorWriteReqs            0                       # Number of requests that are neither read nor write
system.mem_ctrls3.perBankRdBursts::0            40295                       # Per bank write bursts
system.mem_ctrls3.perBankRdBursts::1            40217                       # Per bank write bursts
system.mem_ctrls3.perBankRdBursts::2            39721                       # Per bank write bursts
system.mem_ctrls3.perBankRdBursts::3            40260                       # Per bank write bursts
system.mem_ctrls3.perBankRdBursts::4            39951                       # Per bank write bursts
system.mem_ctrls3.perBankRdBursts::5            40126                       # Per bank write bursts
system.mem_ctrls3.perBankRdBursts::6            41022                       # Per bank write bursts
system.mem_ctrls3.perBankRdBursts::7            40701                       # Per bank write bursts
system.mem_ctrls3.perBankRdBursts::8            39900                       # Per bank write bursts
system.mem_ctrls3.perBankRdBursts::9            39764                       # Per bank write bursts
system.mem_ctrls3.perBankRdBursts::10           39680                       # Per bank write bursts
system.mem_ctrls3.perBankRdBursts::11           40068                       # Per bank write bursts
system.mem_ctrls3.perBankRdBursts::12           39774                       # Per bank write bursts
system.mem_ctrls3.perBankRdBursts::13           39737                       # Per bank write bursts
system.mem_ctrls3.perBankRdBursts::14           40528                       # Per bank write bursts
system.mem_ctrls3.perBankRdBursts::15           40560                       # Per bank write bursts
system.mem_ctrls3.perBankWrBursts::0            18637                       # Per bank write bursts
system.mem_ctrls3.perBankWrBursts::1            18646                       # Per bank write bursts
system.mem_ctrls3.perBankWrBursts::2            18596                       # Per bank write bursts
system.mem_ctrls3.perBankWrBursts::3            18676                       # Per bank write bursts
system.mem_ctrls3.perBankWrBursts::4            18630                       # Per bank write bursts
system.mem_ctrls3.perBankWrBursts::5            18715                       # Per bank write bursts
system.mem_ctrls3.perBankWrBursts::6            18780                       # Per bank write bursts
system.mem_ctrls3.perBankWrBursts::7            18848                       # Per bank write bursts
system.mem_ctrls3.perBankWrBursts::8            18546                       # Per bank write bursts
system.mem_ctrls3.perBankWrBursts::9            18657                       # Per bank write bursts
system.mem_ctrls3.perBankWrBursts::10           18437                       # Per bank write bursts
system.mem_ctrls3.perBankWrBursts::11           18548                       # Per bank write bursts
system.mem_ctrls3.perBankWrBursts::12           18525                       # Per bank write bursts
system.mem_ctrls3.perBankWrBursts::13           18573                       # Per bank write bursts
system.mem_ctrls3.perBankWrBursts::14           18700                       # Per bank write bursts
system.mem_ctrls3.perBankWrBursts::15           18596                       # Per bank write bursts
system.mem_ctrls3.numRdRetry                      195                       # Number of times read queue was full causing retry
system.mem_ctrls3.numWrRetry                     4018                       # Number of times write queue was full causing retry
system.mem_ctrls3.totGap                 132059181000                       # Total gap between requests
system.mem_ctrls3.readPktSize::0                    0                       # Read request sizes (log2)
system.mem_ctrls3.readPktSize::1                    0                       # Read request sizes (log2)
system.mem_ctrls3.readPktSize::2                    0                       # Read request sizes (log2)
system.mem_ctrls3.readPktSize::3                    0                       # Read request sizes (log2)
system.mem_ctrls3.readPktSize::4                    0                       # Read request sizes (log2)
system.mem_ctrls3.readPktSize::5                    0                       # Read request sizes (log2)
system.mem_ctrls3.readPktSize::6               642471                       # Read request sizes (log2)
system.mem_ctrls3.writePktSize::0                   0                       # Write request sizes (log2)
[...]
system.ruby.L2Cache_Controller.MT_MB.L1_PUTX_old::total            1                      
system.ruby.L2Cache_Controller.MT_MB.Exclusive_Unblock |      214726      5.28%      5.28% |      124294      3.06%      8.34% |      122700      3.02%     11.36% |      124528      3.06%     14.42% |      122211      3.01%     17.43% |      121417      2.99%     20.41% |      121474      2.99%     23.40% |      120901      2.97%     26.38% |      121453      2.99%     29.36% |      122099      3.00%     32.37% |      124032      3.05%     35.42% |      122874      3.02%     38.44% |      121783      3.00%     41.44% |      122299      3.01%     44.45% |      121093      2.98%     47.43% |      121359      2.99%     50.41% |      122650      3.02%     53.43% |      122751      3.02%     56.45% |      123302      3.03%     59.48% |      123665      3.04%     62.52% |      124175      3.05%     65.58% |      138808      3.41%     68.99% |      132445      3.26%     72.25% |      123293      3.03%     75.28% |      123806      3.05%     78.33% |      124060      3.05%     81.38% |      123592      3.04%     84.42% |      123346      3.03%     87.46% |      124662      3.07%     90.52% |      123695      3.04%     93.57% |      127242      3.13%     96.70% |      134344      3.30%    100.00%
system.ruby.L2Cache_Controller.MT_MB.Exclusive_Unblock::total      4065079                      
system.ruby.L2Cache_Controller.MT_IIB.L1_GETS |           4     14.81%     14.81% |           0      0.00%     14.81% |           3     11.11%     25.93% |           0      0.00%     25.93% |          12     44.44%     70.37% |           0      0.00%     70.37% |           3     11.11%     81.48% |           0      0.00%     81.48% |           4     14.81%     96.30% |           0      0.00%     96.30% |           0      0.00%     96.30% |           0      0.00%     96.30% |           0      0.00%     96.30% |           0      0.00%     96.30% |           0      0.00%     96.30% |           0      0.00%     96.30% |           1      3.70%    100.00% |           0      0.00%    100.00% |           0      0.00%    100.00% |           0      0.00%    100.00% |           0      0.00%    100.00% |           0      0.00%    100.00% |           0      0.00%    100.00% |           0      0.00%    100.00% |           0      0.00%    100.00% |           0      0.00%    100.00% |           0      0.00%    100.00% |           0      0.00%    100.00% |           0      0.00%    100.00% |           0      0.00%    100.00% |           0      0.00%    100.00% |           0      0.00%    100.00%
system.ruby.L2Cache_Controller.MT_IIB.L1_GETS::total           27                      
system.ruby.L2Cache_Controller.MT_IIB.L1_PUTX |           0      0.00%      0.00% |           1      1.45%      1.45% |           2      2.90%      4.35% |           3      4.35%      8.70% |           0      0.00%      8.70% |           0      0.00%      8.70% |           2      2.90%     11.59% |           0      0.00%     11.59% |           3      4.35%     15.94% |           1      1.45%     17.39% |           3      4.35%     21.74% |           2      2.90%     24.64% |           2      2.90%     27.54% |           2      2.90%     30.43% |           4      5.80%     36.23% |           4      5.80%     42.03% |           3      4.35%     46.38% |           0      0.00%     46.38% |           1      1.45%     47.83% |           3      4.35%     52.17% |           2      2.90%     55.07% |           5      7.25%     62.32% |           2      2.90%     65.22% |           5      7.25%     72.46% |           1      1.45%     73.91% |           3      4.35%     78.26% |           1      1.45%     79.71% |           4      5.80%     85.51% |           0      0.00%     85.51% |           5      7.25%     92.75% |           4      5.80%     98.55% |           1      1.45%    100.00%
system.ruby.L2Cache_Controller.MT_IIB.L1_PUTX::total           69                      
system.ruby.L2Cache_Controller.MT_IIB.WB_Data |           0      0.00%      0.00% |           0      0.00%      0.00% |           0      0.00%      0.00% |           0      0.00%      0.00% |           0      0.00%      0.00% |           0      0.00%      0.00% |           0      0.00%      0.00% |           0      0.00%      0.00% |           0      0.00%      0.00% |           0      0.00%      0.00% |           0      0.00%      0.00% |           0      0.00%      0.00% |           0      0.00%      0.00% |           0      0.00%      0.00% |           0      0.00%      0.00% |           0      0.00%      0.00% |           0      0.00%      0.00% |           0      0.00%      0.00% |           0      0.00%      0.00% |           0      0.00%      0.00% |           0      0.00%      0.00% |           2     40.00%     40.00% |           0      0.00%     40.00% |           0      0.00%     40.00% |           0      0.00%     40.00% |           0      0.00%     40.00% |           1     20.00%     60.00% |           0      0.00%     60.00% |           0      0.00%     60.00% |           0      0.00%     60.00% |           0      0.00%     60.00% |           2     40.00%    100.00%
system.ruby.L2Cache_Controller.MT_IIB.WB_Data::total            5                      
system.ruby.L2Cache_Controller.MT_IIB.WB_Data_clean |         580      3.20%      3.20% |         570      3.15%      6.35% |         559      3.09%      9.44% |         515      2.84%     12.29% |         501      2.77%     15.05% |         452      2.50%     17.55% |         467      2.58%     20.13% |         403      2.23%     22.36% |         438      2.42%     24.77% |         421      2.33%     27.10% |         540      2.98%     30.08% |         472      2.61%     32.69% |         515      2.84%     35.54% |         441      2.44%     37.97% |         515      2.84%     40.82% |         466      2.57%     43.39% |         529      2.92%     46.31% |         505      2.79%     49.10% |         578      3.19%     52.30% |         602      3.33%     55.62% |         641      3.54%     59.16% |         589      3.25%     62.42% |         709      3.92%     66.33% |         623      3.44%     69.77% |         691      3.82%     73.59% |         665      3.67%     77.26% |         690      3.81%     81.07% |         673      3.72%     84.79% |         722      3.99%     88.78% |         667      3.68%     92.47% |         722      3.99%     96.45% |         642      3.55%    100.00%
system.ruby.L2Cache_Controller.MT_IIB.WB_Data_clean::total        18103                      
system.ruby.L2Cache_Controller.MT_IIB.Unblock |           7      1.56%      1.56% |           2      0.45%      2.00% |          24      5.35%      7.35% |          10      2.23%      9.58% |          19      4.23%     13.81% |           9      2.00%     15.81% |          17      3.79%     19.60% |           9      2.00%     21.60% |          15      3.34%     24.94% |          16      3.56%     28.51% |           9      2.00%     30.51% |          17      3.79%     34.30% |           7      1.56%     35.86% |          11      2.45%     38.31% |          13      2.90%     41.20% |           9      2.00%     43.21% |          11      2.45%     45.66% |          14      3.12%     48.78% |          12      2.67%     51.45% |          14      3.12%     54.57% |          18      4.01%     58.57% |          11      2.45%     61.02% |          13      2.90%     63.92% |           8      1.78%     65.70% |          21      4.68%     70.38% |          21      4.68%     75.06% |          16      3.56%     78.62% |          18      4.01%     82.63% |           9      2.00%     84.63% |          28      6.24%     90.87% |          23      5.12%     95.99% |          18      4.01%    100.00%
system.ruby.L2Cache_Controller.MT_IIB.Unblock::total          449                      
system.ruby.L2Cache_Controller.MT_IB.L1_GETS |           0      0.00%      0.00% |           0      0.00%      0.00% |           0      0.00%      0.00% |           0      0.00%      0.00% |           0      0.00%      0.00% |           0      0.00%      0.00% |           1    100.00%    100.00% |           0      0.00%    100.00% |           0      0.00%    100.00% |           0      0.00%    100.00% |           0      0.00%    100.00% |           0      0.00%    100.00% |           0      0.00%    100.00% |           0      0.00%    100.00% |           0      0.00%    100.00% |           0      0.00%    100.00% |           0      0.00%    100.00% |           0      0.00%    100.00% |           0      0.00%    100.00% |           0      0.00%    100.00% |           0      0.00%    100.00% |           0      0.00%    100.00% |           0      0.00%    100.00% |           0      0.00%    100.00% |           0      0.00%    100.00% |           0      0.00%    100.00% |           0      0.00%    100.00% |           0      0.00%    100.00% |           0      0.00%    100.00% |           0      0.00%    100.00% |           0      0.00%    100.00% |           0      0.00%    100.00%
system.ruby.L2Cache_Controller.MT_IB.L1_GETS::total            1                      
system.ruby.L2Cache_Controller.MT_IB.WB_Data_clean |           7      1.56%      1.56% |           2      0.45%      2.00% |          24      5.35%      7.35% |          10      2.23%      9.58% |          19      4.23%     13.81% |           9      2.00%     15.81% |          17      3.79%     19.60% |           9      2.00%     21.60% |          15      3.34%     24.94% |          16      3.56%     28.51% |           9      2.00%     30.51% |          17      3.79%     34.30% |           7      1.56%     35.86% |          11      2.45%     38.31% |          13      2.90%     41.20% |           9      2.00%     43.21% |          11      2.45%     45.66% |          14      3.12%     48.78% |          12      2.67%     51.45% |          14      3.12%     54.57% |          18      4.01%     58.57% |          11      2.45%     61.02% |          13      2.90%     63.92% |           8      1.78%     65.70% |          21      4.68%     70.38% |          21      4.68%     75.06% |          16      3.56%     78.62% |          18      4.01%     82.63% |           9      2.00%     84.63% |          28      6.24%     90.87% |          23      5.12%     95.99% |          18      4.01%    100.00%
system.ruby.L2Cache_Controller.MT_IB.WB_Data_clean::total          449                      
system.ruby.L2Cache_Controller.MT_SB.L1_GETS |           0      0.00%      0.00% |           0      0.00%      0.00% |           0      0.00%      0.00% |           0      0.00%      0.00% |           1     50.00%     50.00% |           0      0.00%     50.00% |           0      0.00%     50.00% |           0      0.00%     50.00% |           1     50.00%    100.00% |           0      0.00%    100.00% |           0      0.00%    100.00% |           0      0.00%    100.00% |           0      0.00%    100.00% |           0      0.00%    100.00% |           0      0.00%    100.00% |           0      0.00%    100.00% |           0      0.00%    100.00% |           0      0.00%    100.00% |           0      0.00%    100.00% |           0      0.00%    100.00% |           0      0.00%    100.00% |           0      0.00%    100.00% |           0      0.00%    100.00% |           0      0.00%    100.00% |           0      0.00%    100.00% |           0      0.00%    100.00% |           0      0.00%    100.00% |           0      0.00%    100.00% |           0      0.00%    100.00% |           0      0.00%    100.00% |           0      0.00%    100.00% |           0      0.00%    100.00%
system.ruby.L2Cache_Controller.MT_SB.L1_GETS::total            2                      
system.ruby.L2Cache_Controller.MT_SB.L1_PUTX |           0      0.00%      0.00% |           0      0.00%      0.00% |           0      0.00%      0.00% |           0      0.00%      0.00% |           0      0.00%      0.00% |           0      0.00%      0.00% |           0      0.00%      0.00% |           0      0.00%      0.00% |           1      8.33%      8.33% |           0      0.00%      8.33% |           0      0.00%      8.33% |           0      0.00%      8.33% |           1      8.33%     16.67% |           0      0.00%     16.67% |           1      8.33%     25.00% |           0      0.00%     25.00% |           0      0.00%     25.00% |           0      0.00%     25.00% |           0      0.00%     25.00% |           0      0.00%     25.00% |           0      0.00%     25.00% |           1      8.33%     33.33% |           1      8.33%     41.67% |           1      8.33%     50.00% |           2     16.67%     66.67% |           0      0.00%     66.67% |           0      0.00%     66.67% |           0      0.00%     66.67% |           1      8.33%     75.00% |           1      8.33%     83.33% |           1      8.33%     91.67% |           1      8.33%    100.00%
system.ruby.L2Cache_Controller.MT_SB.L1_PUTX::total           12                      
system.ruby.L2Cache_Controller.MT_SB.Unblock |         580      3.20%      3.20% |         570      3.15%      6.35% |         559      3.09%      9.44% |         515      2.84%     12.28% |         501      2.77%     15.05% |         452      2.50%     17.54% |         467      2.58%     20.12% |         403      2.23%     22.35% |         438      2.42%     24.77% |         421      2.32%     27.09% |         540      2.98%     30.08% |         472      2.61%     32.68% |         515      2.84%     35.53% |         441      2.44%     37.96% |         515      2.84%     40.81% |         466      2.57%     43.38% |         529      2.92%     46.30% |         505      2.79%     49.09% |         578      3.19%     52.28% |         602      3.32%     55.61% |         641      3.54%     59.15% |         591      3.26%     62.41% |         709      3.92%     66.32% |         623      3.44%     69.76% |         691      3.82%     73.58% |         665      3.67%     77.25% |         691      3.82%     81.07% |         673      3.72%     84.79% |         722      3.99%     88.77% |         667      3.68%     92.46% |         722      3.99%     96.44% |         644      3.56%    100.00%
system.ruby.L2Cache_Controller.MT_SB.Unblock::total        18108                      
system.ruby.SimicsNetworkPortInterface_Controller.MessageSend |     2116024     24.94%     24.94% |     4241679     50.00%     74.94% |      265642      3.13%     78.07% |      265474      3.13%     81.20% |      265620      3.13%     84.33% |      265798      3.13%     87.47% |      265858      3.13%     90.60% |      265821      3.13%     93.74% |      265671      3.13%     96.87% |      265771      3.13%    100.00% |           0      0.00%    100.00% |           0      0.00%    100.00% |           0      0.00%    100.00% |           0      0.00%    100.00% |           0      0.00%    100.00% |           0      0.00%    100.00% |           0      0.00%    100.00% |           0      0.00%    100.00% |           0      0.00%    100.00% |           0      0.00%    100.00% |           0      0.00%    100.00% |           0      0.00%    100.00% |           0      0.00%    100.00% |           0      0.00%    100.00% |           0      0.00%    100.00% |           0      0.00%    100.00% |           0      0.00%    100.00% |           0      0.00%    100.00% |           0      0.00%    100.00% |           0      0.00%    100.00% |           0      0.00%    100.00% |           0      0.00%    100.00%
system.ruby.SimicsNetworkPortInterface_Controller.MessageSend::total      8483358                      
system.ruby.SimicsNetworkPortInterface_Controller.MessageRecv |     2116024     24.94%     24.94% |     4241679     50.00%     74.94% |      265642      3.13%     78.07% |      265474      3.13%     81.20% |      265620      3.13%     84.33% |      265798      3.13%     87.47% |      265858      3.13%     90.60% |      265821      3.13%     93.74% |      265671      3.13%     96.87% |      265771      3.13%    100.00% |           0      0.00%    100.00% |           0      0.00%    100.00% |           0      0.00%    100.00% |           0      0.00%    100.00% |           0      0.00%    100.00% |           0      0.00%    100.00% |           0      0.00%    100.00% |           0      0.00%    100.00% |           0      0.00%    100.00% |           0      0.00%    100.00% |           0      0.00%    100.00% |           0      0.00%    100.00% |           0      0.00%    100.00% |           0      0.00%    100.00% |           0      0.00%    100.00% |           0      0.00%    100.00% |           0      0.00%    100.00% |           0      0.00%    100.00% |           0      0.00%    100.00% |           0      0.00%    100.00% |           0      0.00%    100.00% |           0      0.00%    100.00%
system.ruby.SimicsNetworkPortInterface_Controller.MessageRecv::total      8483358                      
system.ruby.SimicsNetworkPortInterface_Controller.A.MessageSend |     2116024     24.94%     24.94% |     4241679     50.00%     74.94% |      265642      3.13%     78.07% |      265474      3.13%     81.20% |      265620      3.13%     84.33% |      265798      3.13%     87.47% |      265858      3.13%     90.60% |      265821      3.13%     93.74% |      265671      3.13%     96.87% |      265771      3.13%    100.00% |           0      0.00%    100.00% |           0      0.00%    100.00% |           0      0.00%    100.00% |           0      0.00%    100.00% |           0      0.00%    100.00% |           0      0.00%    100.00% |           0      0.00%    100.00% |           0      0.00%    100.00% |           0      0.00%    100.00% |           0      0.00%    100.00% |           0      0.00%    100.00% |           0      0.00%    100.00% |           0      0.00%    100.00% |           0      0.00%    100.00% |           0      0.00%    100.00% |           0      0.00%    100.00% |           0      0.00%    100.00% |           0      0.00%    100.00% |           0      0.00%    100.00% |           0      0.00%    100.00% |           0      0.00%    100.00% |           0      0.00%    100.00%
system.ruby.SimicsNetworkPortInterface_Controller.A.MessageSend::total      8483358                      
system.ruby.SimicsNetworkPortInterface_Controller.A.MessageRecv |     2116024     24.94%     24.94% |     4241679     50.00%     74.94% |      265642      3.13%     78.07% |      265474      3.13%     81.20% |      265620      3.13%     84.33% |      265798      3.13%     87.47% |      265858      3.13%     90.60% |      265821      3.13%     93.74% |      265671      3.13%     96.87% |      265771      3.13%    100.00% |           0      0.00%    100.00% |           0      0.00%    100.00% |           0      0.00%    100.00% |           0      0.00%    100.00% |           0      0.00%    100.00% |           0      0.00%    100.00% |           0      0.00%    100.00% |           0      0.00%    100.00% |           0      0.00%    100.00% |           0      0.00%    100.00% |           0      0.00%    100.00% |           0      0.00%    100.00% |           0      0.00%    100.00% |           0      0.00%    100.00% |           0      0.00%    100.00% |           0      0.00%    100.00% |           0      0.00%    100.00% |           0      0.00%    100.00% |           0      0.00%    100.00% |           0      0.00%    100.00% |           0      0.00%    100.00% |           0      0.00%    100.00%
system.ruby.SimicsNetworkPortInterface_Controller.A.MessageRecv::total      8483358                      
system.switch_cpus.kern.inst.arm                    0                       # number of arm instructions executed
system.switch_cpus.kern.inst.quiesce                0                       # number of quiesce instructions executed

---------- End Simulation Statistics   ----------
