
---------- Begin Simulation Statistics ----------
sim_seconds                                  0.143157                       # Number of seconds simulated
sim_ticks                                143157232500                       # Number of ticks simulated
final_tick                               5319325311000                       # Number of ticks from beginning of simulation (restored from checkpoints and never reset)
sim_freq                                 1000000000000                       # Frequency of simulated ticks
host_inst_rate                                  31685                       # Simulator instruction rate (inst/s)
host_op_rate                                    53619                       # Simulator op (including micro ops) rate (op/s)
host_tick_rate                               54648265                       # Simulator tick rate (ticks/s)
host_mem_usage                                6132824                       # Number of bytes of host memory used
host_seconds                                  2619.61                       # Real time elapsed on the host
sim_insts                                    83003653                       # Number of instructions simulated
sim_ops                                     140461557                       # Number of ops (including micro ops) simulated
system.voltage_domain.voltage                       1                       # Voltage in Volts
system.clk_domain.clock                           500                       # Clock period in ticks
system.mem_ctrls0.bytes_read::ruby.dir_cntrl0     38260736                       # Number of bytes read from this memory
system.mem_ctrls0.bytes_read::total          38260736                       # Number of bytes read from this memory
system.mem_ctrls0.bytes_written::ruby.dir_cntrl0     18605632                       # Number of bytes written to this memory
system.mem_ctrls0.bytes_written::total       18605632                       # Number of bytes written to this memory
system.mem_ctrls0.num_reads::ruby.dir_cntrl0       597824                       # Number of read requests responded to by this memory
system.mem_ctrls0.num_reads::total             597824                       # Number of read requests responded to by this memory
system.mem_ctrls0.num_writes::ruby.dir_cntrl0       290713                       # Number of write requests responded to by this memory
system.mem_ctrls0.num_writes::total            290713                       # Number of write requests responded to by this memory
system.mem_ctrls0.bw_read::ruby.dir_cntrl0    267263730                       # Total read bandwidth from this memory (bytes/s)
system.mem_ctrls0.bw_read::total            267263730                       # Total read bandwidth from this memory (bytes/s)
system.mem_ctrls0.bw_write::ruby.dir_cntrl0    129966413                       # Write bandwidth from this memory (bytes/s)
system.mem_ctrls0.bw_write::total           129966413                       # Write bandwidth from this memory (bytes/s)
system.mem_ctrls0.bw_total::ruby.dir_cntrl0    397230143                       # Total bandwidth to/from this memory (bytes/s)
system.mem_ctrls0.bw_total::total           397230143                       # Total bandwidth to/from this memory (bytes/s)
system.mem_ctrls0.readReqs                     597824                       # Number of read requests accepted
system.mem_ctrls0.writeReqs                    290713                       # Number of write requests accepted
system.mem_ctrls0.readBursts                   597824                       # Number of DRAM read bursts, including those serviced by the write queue
system.mem_ctrls0.writeBursts                  290713                       # Number of DRAM write bursts, including those merged in the write queue
system.mem_ctrls0.bytesReadDRAM              38256512                       # Total number of bytes read from DRAM
system.mem_ctrls0.bytesReadWrQ                   4224                       # Total number of bytes read from write queue
system.mem_ctrls0.bytesWritten               18605504                       # Total number of bytes written to DRAM
system.mem_ctrls0.bytesReadSys               38260736                       # Total read bytes from the system interface side
system.mem_ctrls0.bytesWrittenSys            18605632                       # Total written bytes from the system interface side
system.mem_ctrls0.servicedByWrQ                    66                       # Number of DRAM read bursts serviced by the write queue
system.mem_ctrls0.mergedWrBursts                    0                       # Number of DRAM write bursts merged with an existing one
system.mem_ctrls0.neitherReadNorWriteReqs            0                       # Number of requests that are neither read nor write
system.mem_ctrls0.perBankRdBursts::0            37313                       # Per bank write bursts
system.mem_ctrls0.perBankRdBursts::1            37616                       # Per bank write bursts
system.mem_ctrls0.perBankRdBursts::2            37350                       # Per bank write bursts
system.mem_ctrls0.perBankRdBursts::3            37562                       # Per bank write bursts
system.mem_ctrls0.perBankRdBursts::4            37231                       # Per bank write bursts
system.mem_ctrls0.perBankRdBursts::5            37408                       # Per bank write bursts
system.mem_ctrls0.perBankRdBursts::6            37889                       # Per bank write bursts
system.mem_ctrls0.perBankRdBursts::7            37638                       # Per bank write bursts
system.mem_ctrls0.perBankRdBursts::8            37035                       # Per bank write bursts
system.mem_ctrls0.perBankRdBursts::9            37293                       # Per bank write bursts
system.mem_ctrls0.perBankRdBursts::10           37177                       # Per bank write bursts
system.mem_ctrls0.perBankRdBursts::11           37569                       # Per bank write bursts
system.mem_ctrls0.perBankRdBursts::12           36968                       # Per bank write bursts
system.mem_ctrls0.perBankRdBursts::13           36983                       # Per bank write bursts
system.mem_ctrls0.perBankRdBursts::14           37398                       # Per bank write bursts
system.mem_ctrls0.perBankRdBursts::15           37328                       # Per bank write bursts
system.mem_ctrls0.perBankWrBursts::0            18179                       # Per bank write bursts
system.mem_ctrls0.perBankWrBursts::1            18201                       # Per bank write bursts
system.mem_ctrls0.perBankWrBursts::2            18203                       # Per bank write bursts
system.mem_ctrls0.perBankWrBursts::3            18264                       # Per bank write bursts
system.mem_ctrls0.perBankWrBursts::4            18234                       # Per bank write bursts
system.mem_ctrls0.perBankWrBursts::5            18250                       # Per bank write bursts
system.mem_ctrls0.perBankWrBursts::6            18359                       # Per bank write bursts
system.mem_ctrls0.perBankWrBursts::7            18375                       # Per bank write bursts
system.mem_ctrls0.perBankWrBursts::8            18019                       # Per bank write bursts
system.mem_ctrls0.perBankWrBursts::9            18145                       # Per bank write bursts
system.mem_ctrls0.perBankWrBursts::10           17982                       # Per bank write bursts
system.mem_ctrls0.perBankWrBursts::11           18074                       # Per bank write bursts
system.mem_ctrls0.perBankWrBursts::12           18027                       # Per bank write bursts
system.mem_ctrls0.perBankWrBursts::13           18036                       # Per bank write bursts
system.mem_ctrls0.perBankWrBursts::14           18224                       # Per bank write bursts
system.mem_ctrls0.perBankWrBursts::15           18139                       # Per bank write bursts
system.mem_ctrls0.numRdRetry                        0                       # Number of times read queue was full causing retry
system.mem_ctrls0.numWrRetry                     1457                       # Number of times write queue was full causing retry
system.mem_ctrls0.totGap                 143156828500                       # Total gap between requests
system.mem_ctrls0.readPktSize::0                    0                       # Read request sizes (log2)
system.mem_ctrls0.readPktSize::1                    0                       # Read request sizes (log2)
system.mem_ctrls0.readPktSize::2                    0                       # Read request sizes (log2)
system.mem_ctrls0.readPktSize::3                    0                       # Read request sizes (log2)
system.mem_ctrls0.readPktSize::4                    0                       # Read request sizes (log2)
system.mem_ctrls0.readPktSize::5                    0                       # Read request sizes (log2)
system.mem_ctrls0.readPktSize::6               597824                       # Read request sizes (log2)
system.mem_ctrls0.writePktSize::0                   0                       # Write request sizes (log2)
system.mem_ctrls0.writePktSize::1                   0                       # Write request sizes (log2)
system.mem_ctrls0.writePktSize::2                   0                       # Write request sizes (log2)
system.mem_ctrls0.writePktSize::3                   0                       # Write request sizes (log2)
system.mem_ctrls0.writePktSize::4                   0                       # Write request sizes (log2)
system.mem_ctrls0.writePktSize::5                   0                       # Write request sizes (log2)
system.mem_ctrls0.writePktSize::6              290713                       # Write request sizes (log2)
system.mem_ctrls0.rdQLenPdf::0                 287224                       # What read queue length does an incoming req see
system.mem_ctrls0.rdQLenPdf::1                  96944                       # What read queue length does an incoming req see
system.mem_ctrls0.rdQLenPdf::2                  63822                       # What read queue length does an incoming req see
system.mem_ctrls0.rdQLenPdf::3                  47364                       # What read queue length does an incoming req see
system.mem_ctrls0.rdQLenPdf::4                  34416                       # What read queue length does an incoming req see
system.mem_ctrls0.rdQLenPdf::5                  24753                       # What read queue length does an incoming req see
system.mem_ctrls0.rdQLenPdf::6                  16737                       # What read queue length does an incoming req see
system.mem_ctrls0.rdQLenPdf::7                  10916                       # What read queue length does an incoming req see
system.mem_ctrls0.rdQLenPdf::8                   5821                       # What read queue length does an incoming req see
system.mem_ctrls0.rdQLenPdf::9                   3959                       # What read queue length does an incoming req see
system.mem_ctrls0.rdQLenPdf::10                  2445                       # What read queue length does an incoming req see
system.mem_ctrls0.rdQLenPdf::11                  1592                       # What read queue length does an incoming req see
system.mem_ctrls0.rdQLenPdf::12                   878                       # What read queue length does an incoming req see
system.mem_ctrls0.rdQLenPdf::13                   462                       # What read queue length does an incoming req see
system.mem_ctrls0.rdQLenPdf::14                   228                       # What read queue length does an incoming req see
system.mem_ctrls0.rdQLenPdf::15                   105                       # What read queue length does an incoming req see
system.mem_ctrls0.rdQLenPdf::16                    39                       # What read queue length does an incoming req see
system.mem_ctrls0.rdQLenPdf::17                    26                       # What read queue length does an incoming req see
system.mem_ctrls0.rdQLenPdf::18                    14                       # What read queue length does an incoming req see
system.mem_ctrls0.rdQLenPdf::19                     8                       # What read queue length does an incoming req see
system.mem_ctrls0.rdQLenPdf::20                     2                       # What read queue length does an incoming req see
system.mem_ctrls0.rdQLenPdf::21                     1                       # What read queue length does an incoming req see
system.mem_ctrls0.rdQLenPdf::22                     1                       # What read queue length does an incoming req see
system.mem_ctrls0.rdQLenPdf::23                     1                       # What read queue length does an incoming req see
system.mem_ctrls0.rdQLenPdf::24                     0                       # What read queue length does an incoming req see
system.mem_ctrls0.rdQLenPdf::25                     0                       # What read queue length does an incoming req see
system.mem_ctrls0.rdQLenPdf::26                     0                       # What read queue length does an incoming req see
system.mem_ctrls0.rdQLenPdf::27                     0                       # What read queue length does an incoming req see
system.mem_ctrls0.rdQLenPdf::28                     0                       # What read queue length does an incoming req see
system.mem_ctrls0.rdQLenPdf::29                     0                       # What read queue length does an incoming req see
system.mem_ctrls0.rdQLenPdf::30                     0                       # What read queue length does an incoming req see
system.mem_ctrls0.rdQLenPdf::31                     0                       # What read queue length does an incoming req see
system.mem_ctrls0.wrQLenPdf::0                  50134                       # What write queue length does an incoming req see
system.mem_ctrls0.wrQLenPdf::1                  55146                       # What write queue length does an incoming req see
system.mem_ctrls0.wrQLenPdf::2                  56889                       # What write queue length does an incoming req see
system.mem_ctrls0.wrQLenPdf::3                  57421                       # What write queue length does an incoming req see
system.mem_ctrls0.wrQLenPdf::4                  57329                       # What write queue length does an incoming req see
system.mem_ctrls0.wrQLenPdf::5                   6787                       # What write queue length does an incoming req see
system.mem_ctrls0.wrQLenPdf::6                   3667                       # What write queue length does an incoming req see
system.mem_ctrls0.wrQLenPdf::7                   3340                       # What write queue length does an incoming req see
system.mem_ctrls0.bytesPerActivate::samples       283367                       # Bytes accessed per row activation
system.mem_ctrls0.bytesPerActivate::mean   200.662237                       # Bytes accessed per row activation
system.mem_ctrls0.bytesPerActivate::gmean   155.579099                       # Bytes accessed per row activation
system.mem_ctrls0.bytesPerActivate::stdev   145.720566                       # Bytes accessed per row activation
system.mem_ctrls0.bytesPerActivate::0-127        89598     31.62%     31.62% # Bytes accessed per row activation
system.mem_ctrls0.bytesPerActivate::128-255        88515     31.24%     62.86% # Bytes accessed per row activation
system.mem_ctrls0.bytesPerActivate::256-383        71947     25.39%     88.25% # Bytes accessed per row activation
system.mem_ctrls0.bytesPerActivate::384-511        16959      5.98%     94.23% # Bytes accessed per row activation
system.mem_ctrls0.bytesPerActivate::512-639        12356      4.36%     98.59% # Bytes accessed per row activation
system.mem_ctrls0.bytesPerActivate::640-767         2026      0.71%     99.31% # Bytes accessed per row activation
system.mem_ctrls0.bytesPerActivate::768-895         1080      0.38%     99.69% # Bytes accessed per row activation
system.mem_ctrls0.bytesPerActivate::896-1023          548      0.19%     99.88% # Bytes accessed per row activation
system.mem_ctrls0.bytesPerActivate::1024-1151          338      0.12%    100.00% # Bytes accessed per row activation
system.mem_ctrls0.bytesPerActivate::total       283367                       # Bytes accessed per row activation
system.mem_ctrls0.rdPerTurnAround::samples        50401                       # Reads before turning the bus around for writes
system.mem_ctrls0.rdPerTurnAround::mean     11.859963                       # Reads before turning the bus around for writes
system.mem_ctrls0.rdPerTurnAround::stdev    28.973611                       # Reads before turning the bus around for writes
system.mem_ctrls0.rdPerTurnAround::0-127        49930     99.07%     99.07% # Reads before turning the bus around for writes
system.mem_ctrls0.rdPerTurnAround::128-255          428      0.85%     99.91% # Reads before turning the bus around for writes
system.mem_ctrls0.rdPerTurnAround::256-383           38      0.08%     99.99% # Reads before turning the bus around for writes
system.mem_ctrls0.rdPerTurnAround::384-511            1      0.00%     99.99% # Reads before turning the bus around for writes
system.mem_ctrls0.rdPerTurnAround::512-639            1      0.00%     99.99% # Reads before turning the bus around for writes
system.mem_ctrls0.rdPerTurnAround::768-895            2      0.00%    100.00% # Reads before turning the bus around for writes
system.mem_ctrls0.rdPerTurnAround::3968-4095            1      0.00%    100.00% # Reads before turning the bus around for writes
system.mem_ctrls0.rdPerTurnAround::total        50401                       # Reads before turning the bus around for writes
system.mem_ctrls0.wrPerTurnAround::samples        50401                       # Writes before turning the bus around for reads
system.mem_ctrls0.wrPerTurnAround::mean      5.767961                       # Writes before turning the bus around for reads
system.mem_ctrls0.wrPerTurnAround::gmean     5.578341                       # Writes before turning the bus around for reads
system.mem_ctrls0.wrPerTurnAround::stdev     1.847130                       # Writes before turning the bus around for reads
system.mem_ctrls0.wrPerTurnAround::4-7          44747     88.78%     88.78% # Writes before turning the bus around for reads
system.mem_ctrls0.wrPerTurnAround::8-11          4250      8.43%     97.21% # Writes before turning the bus around for reads
system.mem_ctrls0.wrPerTurnAround::12-15          983      1.95%     99.16% # Writes before turning the bus around for reads
system.mem_ctrls0.wrPerTurnAround::16-19          421      0.84%    100.00% # Writes before turning the bus around for reads
system.mem_ctrls0.wrPerTurnAround::total        50401                       # Writes before turning the bus around for reads
system.mem_ctrls0.totQLat                 20235000463                       # Total ticks spent queuing
system.mem_ctrls0.totMemAccLat            31442962963                       # Total ticks spent from burst creation until serviced by the DRAM
system.mem_ctrls0.totBusLat                2988790000                       # Total ticks spent in databus transfers
system.mem_ctrls0.avgQLat                    33851.49                       # Average queueing delay per DRAM burst
system.mem_ctrls0.avgBusLat                   5000.00                       # Average bus latency per DRAM burst
system.mem_ctrls0.avgMemAccLat               52601.49                       # Average memory access latency per DRAM burst
system.mem_ctrls0.avgRdBW                      267.23                       # Average DRAM read bandwidth in MiByte/s
system.mem_ctrls0.avgWrBW                      129.97                       # Average achieved write bandwidth in MiByte/s
system.mem_ctrls0.avgRdBWSys                   267.26                       # Average system read bandwidth in MiByte/s
system.mem_ctrls0.avgWrBWSys                   129.97                       # Average system write bandwidth in MiByte/s
system.mem_ctrls0.peakBW                     12800.00                       # Theoretical peak bandwidth in MiByte/s
system.mem_ctrls0.busUtil                        3.10                       # Data bus utilization in percentage
system.mem_ctrls0.busUtilRead                    2.09                       # Data bus utilization in percentage for reads
system.mem_ctrls0.busUtilWrite                   1.02                       # Data bus utilization in percentage for writes
system.mem_ctrls0.avgRdQLen                      1.31                       # Average read queue length when enqueuing
system.mem_ctrls0.avgWrQLen                      3.01                       # Average write queue length when enqueuing
system.mem_ctrls0.readRowHits                  433352                       # Number of row buffer hits during reads
system.mem_ctrls0.writeRowHits                 171738                       # Number of row buffer hits during writes
system.mem_ctrls0.readRowHitRate                72.50                       # Row buffer hit rate for reads
system.mem_ctrls0.writeRowHitRate               59.07                       # Row buffer hit rate for writes
system.mem_ctrls0.avgGap                    161115.21                       # Average gap between requests
system.mem_ctrls0.pageHitRate                   68.10                       # Row buffer hit rate, read and write combined
system.mem_ctrls0.memoryStateTime::IDLE   22681485000                       # Time in different power states
system.mem_ctrls0.memoryStateTime::REF     4780100000                       # Time in different power states
system.mem_ctrls0.memoryStateTime::PRE_PDN            0                       # Time in different power states
system.mem_ctrls0.memoryStateTime::ACT   115688895000                       # Time in different power states
system.mem_ctrls0.memoryStateTime::ACT_PDN            0                       # Time in different power states
system.mem_ctrls0.actEnergy::0             1081987200                       # Energy for activate commands per rank (pJ)
system.mem_ctrls0.actEnergy::1             1060184160                       # Energy for activate commands per rank (pJ)
system.mem_ctrls0.preEnergy::0              590370000                       # Energy for precharge commands per rank (pJ)
system.mem_ctrls0.preEnergy::1              578473500                       # Energy for precharge commands per rank (pJ)
system.mem_ctrls0.readEnergy::0            2339984400                       # Energy for read commands per rank (pJ)
system.mem_ctrls0.readEnergy::1            2322325200                       # Energy for read commands per rank (pJ)
system.mem_ctrls0.writeEnergy::0            946462320                       # Energy for write commands per rank (pJ)
system.mem_ctrls0.writeEnergy::1            937280160                       # Energy for write commands per rank (pJ)
system.mem_ctrls0.refreshEnergy::0         9349875600                       # Energy for refresh commands per rank (pJ)
system.mem_ctrls0.refreshEnergy::1         9349875600                       # Energy for refresh commands per rank (pJ)
system.mem_ctrls0.actBackEnergy::0        63307560150                       # Energy for active background per rank (pJ)
system.mem_ctrls0.actBackEnergy::1        62841899790                       # Energy for active background per rank (pJ)
system.mem_ctrls0.preBackEnergy::0        30357332250                       # Energy for precharge background per rank (pJ)
system.mem_ctrls0.preBackEnergy::1        30765806250                       # Energy for precharge background per rank (pJ)
system.mem_ctrls0.totalEnergy::0         107973571920                       # Total energy per rank (pJ)
system.mem_ctrls0.totalEnergy::1         107855844660                       # Total energy per rank (pJ)
system.mem_ctrls0.averagePower::0          754.266296                       # Core power per rank (mW)
system.mem_ctrls0.averagePower::1          753.443894                       # Core power per rank (mW)
system.mem_ctrls1.bytes_read::ruby.dir_cntrl1     37695360                       # Number of bytes read from this memory
system.mem_ctrls1.bytes_read::total          37695360                       # Number of bytes read from this memory
system.mem_ctrls1.bytes_written::ruby.dir_cntrl1     18050496                       # Number of bytes written to this memory
system.mem_ctrls1.bytes_written::total       18050496                       # Number of bytes written to this memory
system.mem_ctrls1.num_reads::ruby.dir_cntrl1       588990                       # Number of read requests responded to by this memory
system.mem_ctrls1.num_reads::total             588990                       # Number of read requests responded to by this memory
system.mem_ctrls1.num_writes::ruby.dir_cntrl1       282039                       # Number of write requests responded to by this memory
system.mem_ctrls1.num_writes::total            282039                       # Number of write requests responded to by this memory
system.mem_ctrls1.bw_read::ruby.dir_cntrl1    263314395                       # Total read bandwidth from this memory (bytes/s)
system.mem_ctrls1.bw_read::total            263314395                       # Total read bandwidth from this memory (bytes/s)
system.mem_ctrls1.bw_write::ruby.dir_cntrl1    126088607                       # Write bandwidth from this memory (bytes/s)
system.mem_ctrls1.bw_write::total           126088607                       # Write bandwidth from this memory (bytes/s)
system.mem_ctrls1.bw_total::ruby.dir_cntrl1    389403001                       # Total bandwidth to/from this memory (bytes/s)
system.mem_ctrls1.bw_total::total           389403001                       # Total bandwidth to/from this memory (bytes/s)
system.mem_ctrls1.readReqs                     588991                       # Number of read requests accepted
system.mem_ctrls1.writeReqs                    282039                       # Number of write requests accepted
system.mem_ctrls1.readBursts                   588991                       # Number of DRAM read bursts, including those serviced by the write queue
system.mem_ctrls1.writeBursts                  282039                       # Number of DRAM write bursts, including those merged in the write queue
system.mem_ctrls1.bytesReadDRAM              37691136                       # Total number of bytes read from DRAM
system.mem_ctrls1.bytesReadWrQ                   4288                       # Total number of bytes read from write queue
system.mem_ctrls1.bytesWritten               18050432                       # Total number of bytes written to DRAM
system.mem_ctrls1.bytesReadSys               37695424                       # Total read bytes from the system interface side
system.mem_ctrls1.bytesWrittenSys            18050496                       # Total written bytes from the system interface side
system.mem_ctrls1.servicedByWrQ                    67                       # Number of DRAM read bursts serviced by the write queue
system.mem_ctrls1.mergedWrBursts                    0                       # Number of DRAM write bursts merged with an existing one
system.mem_ctrls1.neitherReadNorWriteReqs            0                       # Number of requests that are neither read nor write
system.mem_ctrls1.perBankRdBursts::0            36790                       # Per bank write bursts
system.mem_ctrls1.perBankRdBursts::1            37049                       # Per bank write bursts
system.mem_ctrls1.perBankRdBursts::2            36785                       # Per bank write bursts
system.mem_ctrls1.perBankRdBursts::3            36982                       # Per bank write bursts
system.mem_ctrls1.perBankRdBursts::4            36778                       # Per bank write bursts
system.mem_ctrls1.perBankRdBursts::5            36807                       # Per bank write bursts
system.mem_ctrls1.perBankRdBursts::6            37535                       # Per bank write bursts
system.mem_ctrls1.perBankRdBursts::7            37071                       # Per bank write bursts
system.mem_ctrls1.perBankRdBursts::8            36517                       # Per bank write bursts
system.mem_ctrls1.perBankRdBursts::9            36675                       # Per bank write bursts
system.mem_ctrls1.perBankRdBursts::10           36526                       # Per bank write bursts
system.mem_ctrls1.perBankRdBursts::11           36970                       # Per bank write bursts
system.mem_ctrls1.perBankRdBursts::12           36482                       # Per bank write bursts
system.mem_ctrls1.perBankRdBursts::13           36386                       # Per bank write bursts
system.mem_ctrls1.perBankRdBursts::14           36732                       # Per bank write bursts
system.mem_ctrls1.perBankRdBursts::15           36839                       # Per bank write bursts
system.mem_ctrls1.perBankWrBursts::0            17654                       # Per bank write bursts
system.mem_ctrls1.perBankWrBursts::1            17665                       # Per bank write bursts
system.mem_ctrls1.perBankWrBursts::2            17697                       # Per bank write bursts
system.mem_ctrls1.perBankWrBursts::3            17732                       # Per bank write bursts
system.mem_ctrls1.perBankWrBursts::4            17713                       # Per bank write bursts
system.mem_ctrls1.perBankWrBursts::5            17724                       # Per bank write bursts
system.mem_ctrls1.perBankWrBursts::6            17794                       # Per bank write bursts
system.mem_ctrls1.perBankWrBursts::7            17811                       # Per bank write bursts
system.mem_ctrls1.perBankWrBursts::8            17489                       # Per bank write bursts
system.mem_ctrls1.perBankWrBursts::9            17595                       # Per bank write bursts
system.mem_ctrls1.perBankWrBursts::10           17426                       # Per bank write bursts
system.mem_ctrls1.perBankWrBursts::11           17533                       # Per bank write bursts
system.mem_ctrls1.perBankWrBursts::12           17498                       # Per bank write bursts
system.mem_ctrls1.perBankWrBursts::13           17489                       # Per bank write bursts
system.mem_ctrls1.perBankWrBursts::14           17620                       # Per bank write bursts
system.mem_ctrls1.perBankWrBursts::15           17598                       # Per bank write bursts
system.mem_ctrls1.numRdRetry                        0                       # Number of times read queue was full causing retry
system.mem_ctrls1.numWrRetry                     1247                       # Number of times write queue was full causing retry
system.mem_ctrls1.totGap                 143156566000                       # Total gap between requests
system.mem_ctrls1.readPktSize::0                    0                       # Read request sizes (log2)
system.mem_ctrls1.readPktSize::1                    0                       # Read request sizes (log2)
system.mem_ctrls1.readPktSize::2                    0                       # Read request sizes (log2)
system.mem_ctrls1.readPktSize::3                    0                       # Read request sizes (log2)
system.mem_ctrls1.readPktSize::4                    0                       # Read request sizes (log2)
system.mem_ctrls1.readPktSize::5                    0                       # Read request sizes (log2)
system.mem_ctrls1.readPktSize::6               588991                       # Read request sizes (log2)
system.mem_ctrls1.writePktSize::0                   0                       # Write request sizes (log2)
system.mem_ctrls1.writePktSize::1                   0                       # Write request sizes (log2)
system.mem_ctrls1.writePktSize::2                   0                       # Write request sizes (log2)
system.mem_ctrls1.writePktSize::3                   0                       # Write request sizes (log2)
system.mem_ctrls1.writePktSize::4                   0                       # Write request sizes (log2)
system.mem_ctrls1.writePktSize::5                   0                       # Write request sizes (log2)
system.mem_ctrls1.writePktSize::6              282039                       # Write request sizes (log2)
system.mem_ctrls1.rdQLenPdf::0                 278040                       # What read queue length does an incoming req see
system.mem_ctrls1.rdQLenPdf::1                 101619                       # What read queue length does an incoming req see
system.mem_ctrls1.rdQLenPdf::2                  63119                       # What read queue length does an incoming req see
system.mem_ctrls1.rdQLenPdf::3                  46776                       # What read queue length does an incoming req see
system.mem_ctrls1.rdQLenPdf::4                  32896                       # What read queue length does an incoming req see
system.mem_ctrls1.rdQLenPdf::5                  23684                       # What read queue length does an incoming req see
system.mem_ctrls1.rdQLenPdf::6                  16247                       # What read queue length does an incoming req see
system.mem_ctrls1.rdQLenPdf::7                  10758                       # What read queue length does an incoming req see
system.mem_ctrls1.rdQLenPdf::8                   5879                       # What read queue length does an incoming req see
system.mem_ctrls1.rdQLenPdf::9                   3953                       # What read queue length does an incoming req see
system.mem_ctrls1.rdQLenPdf::10                  2535                       # What read queue length does an incoming req see
system.mem_ctrls1.rdQLenPdf::11                  1558                       # What read queue length does an incoming req see
system.mem_ctrls1.rdQLenPdf::12                   854                       # What read queue length does an incoming req see
system.mem_ctrls1.rdQLenPdf::13                   489                       # What read queue length does an incoming req see
system.mem_ctrls1.rdQLenPdf::14                   242                       # What read queue length does an incoming req see
system.mem_ctrls1.rdQLenPdf::15                   123                       # What read queue length does an incoming req see
system.mem_ctrls1.rdQLenPdf::16                    69                       # What read queue length does an incoming req see
system.mem_ctrls1.rdQLenPdf::17                    34                       # What read queue length does an incoming req see
system.mem_ctrls1.rdQLenPdf::18                    26                       # What read queue length does an incoming req see
system.mem_ctrls1.rdQLenPdf::19                    16                       # What read queue length does an incoming req see
system.mem_ctrls1.rdQLenPdf::20                     5                       # What read queue length does an incoming req see
system.mem_ctrls1.rdQLenPdf::21                     2                       # What read queue length does an incoming req see
system.mem_ctrls1.rdQLenPdf::22                     0                       # What read queue length does an incoming req see
system.mem_ctrls1.rdQLenPdf::23                     0                       # What read queue length does an incoming req see
system.mem_ctrls1.rdQLenPdf::24                     0                       # What read queue length does an incoming req see
system.mem_ctrls1.rdQLenPdf::25                     0                       # What read queue length does an incoming req see
system.mem_ctrls1.rdQLenPdf::26                     0                       # What read queue length does an incoming req see
system.mem_ctrls1.rdQLenPdf::27                     0                       # What read queue length does an incoming req see
system.mem_ctrls1.rdQLenPdf::28                     0                       # What read queue length does an incoming req see
system.mem_ctrls1.rdQLenPdf::29                     0                       # What read queue length does an incoming req see
system.mem_ctrls1.rdQLenPdf::30                     0                       # What read queue length does an incoming req see
system.mem_ctrls1.rdQLenPdf::31                     0                       # What read queue length does an incoming req see
system.mem_ctrls1.wrQLenPdf::0                  48587                       # What write queue length does an incoming req see
system.mem_ctrls1.wrQLenPdf::1                  53690                       # What write queue length does an incoming req see
system.mem_ctrls1.wrQLenPdf::2                  55552                       # What write queue length does an incoming req see
system.mem_ctrls1.wrQLenPdf::3                  56082                       # What write queue length does an incoming req see
system.mem_ctrls1.wrQLenPdf::4                  55516                       # What write queue length does an incoming req see
system.mem_ctrls1.wrQLenPdf::5                   6213                       # What write queue length does an incoming req see
system.mem_ctrls1.wrQLenPdf::6                   3346                       # What write queue length does an incoming req see
system.mem_ctrls1.wrQLenPdf::7                   3053                       # What write queue length does an incoming req see
system.mem_ctrls1.bytesPerActivate::samples       269836                       # Bytes accessed per row activation
system.mem_ctrls1.bytesPerActivate::mean   206.571695                       # Bytes accessed per row activation
system.mem_ctrls1.bytesPerActivate::gmean   160.338170                       # Bytes accessed per row activation
system.mem_ctrls1.bytesPerActivate::stdev   147.537119                       # Bytes accessed per row activation
system.mem_ctrls1.bytesPerActivate::0-127        82471     30.56%     30.56% # Bytes accessed per row activation
system.mem_ctrls1.bytesPerActivate::128-255        81594     30.24%     60.80% # Bytes accessed per row activation
system.mem_ctrls1.bytesPerActivate::256-383        72299     26.79%     87.60% # Bytes accessed per row activation
system.mem_ctrls1.bytesPerActivate::384-511        16972      6.29%     93.89% # Bytes accessed per row activation
system.mem_ctrls1.bytesPerActivate::512-639        12484      4.63%     98.51% # Bytes accessed per row activation
system.mem_ctrls1.bytesPerActivate::640-767         2089      0.77%     99.29% # Bytes accessed per row activation
system.mem_ctrls1.bytesPerActivate::768-895         1017      0.38%     99.66% # Bytes accessed per row activation
system.mem_ctrls1.bytesPerActivate::896-1023          570      0.21%     99.87% # Bytes accessed per row activation
system.mem_ctrls1.bytesPerActivate::1024-1151          340      0.13%    100.00% # Bytes accessed per row activation
system.mem_ctrls1.bytesPerActivate::total       269836                       # Bytes accessed per row activation
system.mem_ctrls1.rdPerTurnAround::samples        48830                       # Reads before turning the bus around for writes
system.mem_ctrls1.rdPerTurnAround::mean     12.060680                       # Reads before turning the bus around for writes
system.mem_ctrls1.rdPerTurnAround::stdev    27.093025                       # Reads before turning the bus around for writes
system.mem_ctrls1.rdPerTurnAround::0-127        48406     99.13%     99.13% # Reads before turning the bus around for writes
system.mem_ctrls1.rdPerTurnAround::128-255          399      0.82%     99.95% # Reads before turning the bus around for writes
system.mem_ctrls1.rdPerTurnAround::256-383           15      0.03%     99.98% # Reads before turning the bus around for writes
system.mem_ctrls1.rdPerTurnAround::384-511            2      0.00%     99.98% # Reads before turning the bus around for writes
system.mem_ctrls1.rdPerTurnAround::512-639            3      0.01%     99.99% # Reads before turning the bus around for writes
system.mem_ctrls1.rdPerTurnAround::768-895            3      0.01%    100.00% # Reads before turning the bus around for writes
system.mem_ctrls1.rdPerTurnAround::1152-1279            1      0.00%    100.00% # Reads before turning the bus around for writes
system.mem_ctrls1.rdPerTurnAround::2816-2943            1      0.00%    100.00% # Reads before turning the bus around for writes
system.mem_ctrls1.rdPerTurnAround::total        48830                       # Reads before turning the bus around for writes
system.mem_ctrls1.wrPerTurnAround::samples        48830                       # Writes before turning the bus around for reads
system.mem_ctrls1.wrPerTurnAround::mean      5.775916                       # Writes before turning the bus around for reads
system.mem_ctrls1.wrPerTurnAround::gmean     5.585182                       # Writes before turning the bus around for reads
system.mem_ctrls1.wrPerTurnAround::stdev     1.847712                       # Writes before turning the bus around for reads
system.mem_ctrls1.wrPerTurnAround::4-7          43191     88.45%     88.45% # Writes before turning the bus around for reads
system.mem_ctrls1.wrPerTurnAround::8-11          4275      8.75%     97.21% # Writes before turning the bus around for reads
system.mem_ctrls1.wrPerTurnAround::12-15          986      2.02%     99.23% # Writes before turning the bus around for reads
system.mem_ctrls1.wrPerTurnAround::16-19          378      0.77%    100.00% # Writes before turning the bus around for reads
system.mem_ctrls1.wrPerTurnAround::total        48830                       # Writes before turning the bus around for reads
system.mem_ctrls1.totQLat                 19910584871                       # Total ticks spent queuing
system.mem_ctrls1.totMemAccLat            30952909871                       # Total ticks spent from burst creation until serviced by the DRAM
system.mem_ctrls1.totBusLat                2944620000                       # Total ticks spent in databus transfers
system.mem_ctrls1.avgQLat                    33808.41                       # Average queueing delay per DRAM burst
system.mem_ctrls1.avgBusLat                   5000.00                       # Average bus latency per DRAM burst
system.mem_ctrls1.avgMemAccLat               52558.41                       # Average memory access latency per DRAM burst
system.mem_ctrls1.avgRdBW                      263.28                       # Average DRAM read bandwidth in MiByte/s
system.mem_ctrls1.avgWrBW                      126.09                       # Average achieved write bandwidth in MiByte/s
system.mem_ctrls1.avgRdBWSys                   263.31                       # Average system read bandwidth in MiByte/s
system.mem_ctrls1.avgWrBWSys                   126.09                       # Average system write bandwidth in MiByte/s
system.mem_ctrls1.peakBW                     12800.00                       # Theoretical peak bandwidth in MiByte/s
system.mem_ctrls1.busUtil                        3.04                       # Data bus utilization in percentage
system.mem_ctrls1.busUtilRead                    2.06                       # Data bus utilization in percentage for reads
system.mem_ctrls1.busUtilWrite                   0.99                       # Data bus utilization in percentage for writes
system.mem_ctrls1.avgRdQLen                      1.31                       # Average read queue length when enqueuing
system.mem_ctrls1.avgWrQLen                      3.01                       # Average write queue length when enqueuing
system.mem_ctrls1.readRowHits                  430467                       # Number of row buffer hits during reads
system.mem_ctrls1.writeRowHits                 170649                       # Number of row buffer hits during writes
system.mem_ctrls1.readRowHitRate                73.09                       # Row buffer hit rate for reads
system.mem_ctrls1.writeRowHitRate               60.51                       # Row buffer hit rate for writes
system.mem_ctrls1.avgGap                    164353.20                       # Average gap between requests
system.mem_ctrls1.pageHitRate                   69.02                       # Row buffer hit rate, read and write combined
system.mem_ctrls1.memoryStateTime::IDLE   23213957500                       # Time in different power states
system.mem_ctrls1.memoryStateTime::REF     4780100000                       # Time in different power states
system.mem_ctrls1.memoryStateTime::PRE_PDN            0                       # Time in different power states
system.mem_ctrls1.memoryStateTime::ACT   115156516500                       # Time in different power states
system.mem_ctrls1.memoryStateTime::ACT_PDN            0                       # Time in different power states
system.mem_ctrls1.actEnergy::0             1033338600                       # Energy for activate commands per rank (pJ)
system.mem_ctrls1.actEnergy::1             1006530840                       # Energy for activate commands per rank (pJ)
system.mem_ctrls1.preEnergy::0              563825625                       # Energy for precharge commands per rank (pJ)
system.mem_ctrls1.preEnergy::1              549198375                       # Energy for precharge commands per rank (pJ)
system.mem_ctrls1.readEnergy::0            2307115200                       # Energy for read commands per rank (pJ)
system.mem_ctrls1.readEnergy::1            2286219000                       # Energy for read commands per rank (pJ)
system.mem_ctrls1.writeEnergy::0            918786240                       # Energy for write commands per rank (pJ)
system.mem_ctrls1.writeEnergy::1            908755200                       # Energy for write commands per rank (pJ)
system.mem_ctrls1.refreshEnergy::0         9349875600                       # Energy for refresh commands per rank (pJ)
system.mem_ctrls1.refreshEnergy::1         9349875600                       # Energy for refresh commands per rank (pJ)
system.mem_ctrls1.actBackEnergy::0        62068730985                       # Energy for active background per rank (pJ)
system.mem_ctrls1.actBackEnergy::1        61850635875                       # Energy for active background per rank (pJ)
system.mem_ctrls1.preBackEnergy::0        31444041750                       # Energy for precharge background per rank (pJ)
system.mem_ctrls1.preBackEnergy::1        31635353250                       # Energy for precharge background per rank (pJ)
system.mem_ctrls1.totalEnergy::0         107685714000                       # Total energy per rank (pJ)
system.mem_ctrls1.totalEnergy::1         107586568140                       # Total energy per rank (pJ)
system.mem_ctrls1.averagePower::0          752.255268                       # Core power per rank (mW)
system.mem_ctrls1.averagePower::1          751.562669                       # Core power per rank (mW)
system.mem_ctrls2.bytes_read::ruby.dir_cntrl2     37702656                       # Number of bytes read from this memory
system.mem_ctrls2.bytes_read::total          37702656                       # Number of bytes read from this memory
system.mem_ctrls2.bytes_written::ruby.dir_cntrl2     18048384                       # Number of bytes written to this memory
system.mem_ctrls2.bytes_written::total       18048384                       # Number of bytes written to this memory
system.mem_ctrls2.num_reads::ruby.dir_cntrl2       589104                       # Number of read requests responded to by this memory
system.mem_ctrls2.num_reads::total             589104                       # Number of read requests responded to by this memory
system.mem_ctrls2.num_writes::ruby.dir_cntrl2       282006                       # Number of write requests responded to by this memory
system.mem_ctrls2.num_writes::total            282006                       # Number of write requests responded to by this memory
system.mem_ctrls2.bw_read::ruby.dir_cntrl2    263365359                       # Total read bandwidth from this memory (bytes/s)
system.mem_ctrls2.bw_read::total            263365359                       # Total read bandwidth from this memory (bytes/s)
system.mem_ctrls2.bw_write::ruby.dir_cntrl2    126073854                       # Write bandwidth from this memory (bytes/s)
system.mem_ctrls2.bw_write::total           126073854                       # Write bandwidth from this memory (bytes/s)
system.mem_ctrls2.bw_total::ruby.dir_cntrl2    389439213                       # Total bandwidth to/from this memory (bytes/s)
system.mem_ctrls2.bw_total::total           389439213                       # Total bandwidth to/from this memory (bytes/s)
system.mem_ctrls2.readReqs                     589104                       # Number of read requests accepted
system.mem_ctrls2.writeReqs                    282006                       # Number of write requests accepted
system.mem_ctrls2.readBursts                   589104                       # Number of DRAM read bursts, including those serviced by the write queue
system.mem_ctrls2.writeBursts                  282006                       # Number of DRAM write bursts, including those merged in the write queue
system.mem_ctrls2.bytesReadDRAM              37701184                       # Total number of bytes read from DRAM
system.mem_ctrls2.bytesReadWrQ                   1472                       # Total number of bytes read from write queue
system.mem_ctrls2.bytesWritten               18048256                       # Total number of bytes written to DRAM
system.mem_ctrls2.bytesReadSys               37702656                       # Total read bytes from the system interface side
system.mem_ctrls2.bytesWrittenSys            18048384                       # Total written bytes from the system interface side
system.mem_ctrls2.servicedByWrQ                    23                       # Number of DRAM read bursts serviced by the write queue
system.mem_ctrls2.mergedWrBursts                    0                       # Number of DRAM write bursts merged with an existing one
system.mem_ctrls2.neitherReadNorWriteReqs            0                       # Number of requests that are neither read nor write
system.mem_ctrls2.perBankRdBursts::0            36736                       # Per bank write bursts
system.mem_ctrls2.perBankRdBursts::1            37145                       # Per bank write bursts
system.mem_ctrls2.perBankRdBursts::2            36839                       # Per bank write bursts
system.mem_ctrls2.perBankRdBursts::3            37067                       # Per bank write bursts
system.mem_ctrls2.perBankRdBursts::4            36733                       # Per bank write bursts
system.mem_ctrls2.perBankRdBursts::5            36841                       # Per bank write bursts
system.mem_ctrls2.perBankRdBursts::6            37364                       # Per bank write bursts
system.mem_ctrls2.perBankRdBursts::7            37083                       # Per bank write bursts
system.mem_ctrls2.perBankRdBursts::8            36505                       # Per bank write bursts
system.mem_ctrls2.perBankRdBursts::9            36748                       # Per bank write bursts
system.mem_ctrls2.perBankRdBursts::10           36580                       # Per bank write bursts
system.mem_ctrls2.perBankRdBursts::11           37025                       # Per bank write bursts
system.mem_ctrls2.perBankRdBursts::12           36478                       # Per bank write bursts
system.mem_ctrls2.perBankRdBursts::13           36380                       # Per bank write bursts
system.mem_ctrls2.perBankRdBursts::14           36712                       # Per bank write bursts
system.mem_ctrls2.perBankRdBursts::15           36845                       # Per bank write bursts
system.mem_ctrls2.perBankWrBursts::0            17642                       # Per bank write bursts
system.mem_ctrls2.perBankWrBursts::1            17670                       # Per bank write bursts
system.mem_ctrls2.perBankWrBursts::2            17698                       # Per bank write bursts
system.mem_ctrls2.perBankWrBursts::3            17728                       # Per bank write bursts
system.mem_ctrls2.perBankWrBursts::4            17710                       # Per bank write bursts
system.mem_ctrls2.perBankWrBursts::5            17714                       # Per bank write bursts
system.mem_ctrls2.perBankWrBursts::6            17732                       # Per bank write bursts
system.mem_ctrls2.perBankWrBursts::7            17823                       # Per bank write bursts
system.mem_ctrls2.perBankWrBursts::8            17485                       # Per bank write bursts
system.mem_ctrls2.perBankWrBursts::9            17614                       # Per bank write bursts
system.mem_ctrls2.perBankWrBursts::10           17413                       # Per bank write bursts
system.mem_ctrls2.perBankWrBursts::11           17539                       # Per bank write bursts
system.mem_ctrls2.perBankWrBursts::12           17511                       # Per bank write bursts
system.mem_ctrls2.perBankWrBursts::13           17492                       # Per bank write bursts
system.mem_ctrls2.perBankWrBursts::14           17625                       # Per bank write bursts
system.mem_ctrls2.perBankWrBursts::15           17608                       # Per bank write bursts
system.mem_ctrls2.numRdRetry                        0                       # Number of times read queue was full causing retry
system.mem_ctrls2.numWrRetry                     1466                       # Number of times write queue was full causing retry
system.mem_ctrls2.totGap                 143157181500                       # Total gap between requests
system.mem_ctrls2.readPktSize::0                    0                       # Read request sizes (log2)
system.mem_ctrls2.readPktSize::1                    0                       # Read request sizes (log2)
system.mem_ctrls2.readPktSize::2                    0                       # Read request sizes (log2)
system.mem_ctrls2.readPktSize::3                    0                       # Read request sizes (log2)
system.mem_ctrls2.readPktSize::4                    0                       # Read request sizes (log2)
system.mem_ctrls2.readPktSize::5                    0                       # Read request sizes (log2)
system.mem_ctrls2.readPktSize::6               589104                       # Read request sizes (log2)
system.mem_ctrls2.writePktSize::0                   0                       # Write request sizes (log2)
system.mem_ctrls2.writePktSize::1                   0                       # Write request sizes (log2)
system.mem_ctrls2.writePktSize::2                   0                       # Write request sizes (log2)
system.mem_ctrls2.writePktSize::3                   0                       # Write request sizes (log2)
system.mem_ctrls2.writePktSize::4                   0                       # Write request sizes (log2)
system.mem_ctrls2.writePktSize::5                   0                       # Write request sizes (log2)
system.mem_ctrls2.writePktSize::6              282006                       # Write request sizes (log2)
system.mem_ctrls2.rdQLenPdf::0                 279909                       # What read queue length does an incoming req see
system.mem_ctrls2.rdQLenPdf::1                  99539                       # What read queue length does an incoming req see
system.mem_ctrls2.rdQLenPdf::2                  62948                       # What read queue length does an incoming req see
system.mem_ctrls2.rdQLenPdf::3                  46604                       # What read queue length does an incoming req see
system.mem_ctrls2.rdQLenPdf::4                  33318                       # What read queue length does an incoming req see
system.mem_ctrls2.rdQLenPdf::5                  24078                       # What read queue length does an incoming req see
system.mem_ctrls2.rdQLenPdf::6                  16486                       # What read queue length does an incoming req see
system.mem_ctrls2.rdQLenPdf::7                  10659                       # What read queue length does an incoming req see
system.mem_ctrls2.rdQLenPdf::8                   5663                       # What read queue length does an incoming req see
system.mem_ctrls2.rdQLenPdf::9                   3936                       # What read queue length does an incoming req see
system.mem_ctrls2.rdQLenPdf::10                  2467                       # What read queue length does an incoming req see
system.mem_ctrls2.rdQLenPdf::11                  1538                       # What read queue length does an incoming req see
system.mem_ctrls2.rdQLenPdf::12                   878                       # What read queue length does an incoming req see
system.mem_ctrls2.rdQLenPdf::13                   491                       # What read queue length does an incoming req see
system.mem_ctrls2.rdQLenPdf::14                   250                       # What read queue length does an incoming req see
system.mem_ctrls2.rdQLenPdf::15                   123                       # What read queue length does an incoming req see
system.mem_ctrls2.rdQLenPdf::16                    73                       # What read queue length does an incoming req see
system.mem_ctrls2.rdQLenPdf::17                    52                       # What read queue length does an incoming req see
system.mem_ctrls2.rdQLenPdf::18                    28                       # What read queue length does an incoming req see
system.mem_ctrls2.rdQLenPdf::19                    19                       # What read queue length does an incoming req see
system.mem_ctrls2.rdQLenPdf::20                    12                       # What read queue length does an incoming req see
system.mem_ctrls2.rdQLenPdf::21                     8                       # What read queue length does an incoming req see
system.mem_ctrls2.rdQLenPdf::22                     2                       # What read queue length does an incoming req see
system.mem_ctrls2.rdQLenPdf::23                     0                       # What read queue length does an incoming req see
system.mem_ctrls2.rdQLenPdf::24                     0                       # What read queue length does an incoming req see
system.mem_ctrls2.rdQLenPdf::25                     0                       # What read queue length does an incoming req see
system.mem_ctrls2.rdQLenPdf::26                     0                       # What read queue length does an incoming req see
system.mem_ctrls2.rdQLenPdf::27                     0                       # What read queue length does an incoming req see
system.mem_ctrls2.rdQLenPdf::28                     0                       # What read queue length does an incoming req see
system.mem_ctrls2.rdQLenPdf::29                     0                       # What read queue length does an incoming req see
system.mem_ctrls2.rdQLenPdf::30                     0                       # What read queue length does an incoming req see
system.mem_ctrls2.rdQLenPdf::31                     0                       # What read queue length does an incoming req see
system.mem_ctrls2.wrQLenPdf::0                  48598                       # What write queue length does an incoming req see
system.mem_ctrls2.wrQLenPdf::1                  53367                       # What write queue length does an incoming req see
system.mem_ctrls2.wrQLenPdf::2                  55327                       # What write queue length does an incoming req see
system.mem_ctrls2.wrQLenPdf::3                  55925                       # What write queue length does an incoming req see
system.mem_ctrls2.wrQLenPdf::4                  55247                       # What write queue length does an incoming req see
system.mem_ctrls2.wrQLenPdf::5                   6415                       # What write queue length does an incoming req see
system.mem_ctrls2.wrQLenPdf::6                   3670                       # What write queue length does an incoming req see
system.mem_ctrls2.wrQLenPdf::7                   3457                       # What write queue length does an incoming req see
system.mem_ctrls2.bytesPerActivate::samples       269765                       # Bytes accessed per row activation
system.mem_ctrls2.bytesPerActivate::mean   206.656668                       # Bytes accessed per row activation
system.mem_ctrls2.bytesPerActivate::gmean   160.297960                       # Bytes accessed per row activation
system.mem_ctrls2.bytesPerActivate::stdev   147.858243                       # Bytes accessed per row activation
system.mem_ctrls2.bytesPerActivate::0-127        82760     30.68%     30.68% # Bytes accessed per row activation
system.mem_ctrls2.bytesPerActivate::128-255        81326     30.15%     60.83% # Bytes accessed per row activation
system.mem_ctrls2.bytesPerActivate::256-383        72174     26.75%     87.58% # Bytes accessed per row activation
system.mem_ctrls2.bytesPerActivate::384-511        17036      6.32%     93.90% # Bytes accessed per row activation
system.mem_ctrls2.bytesPerActivate::512-639        12387      4.59%     98.49% # Bytes accessed per row activation
system.mem_ctrls2.bytesPerActivate::640-767         2071      0.77%     99.25% # Bytes accessed per row activation
system.mem_ctrls2.bytesPerActivate::768-895         1080      0.40%     99.65% # Bytes accessed per row activation
system.mem_ctrls2.bytesPerActivate::896-1023          595      0.22%     99.88% # Bytes accessed per row activation
system.mem_ctrls2.bytesPerActivate::1024-1151          336      0.12%    100.00% # Bytes accessed per row activation
system.mem_ctrls2.bytesPerActivate::total       269765                       # Bytes accessed per row activation
system.mem_ctrls2.rdPerTurnAround::samples        48813                       # Reads before turning the bus around for writes
system.mem_ctrls2.rdPerTurnAround::mean     12.068035                       # Reads before turning the bus around for writes
system.mem_ctrls2.rdPerTurnAround::stdev    27.173358                       # Reads before turning the bus around for writes
system.mem_ctrls2.rdPerTurnAround::0-127        48343     99.04%     99.04% # Reads before turning the bus around for writes
system.mem_ctrls2.rdPerTurnAround::128-255          427      0.87%     99.91% # Reads before turning the bus around for writes
system.mem_ctrls2.rdPerTurnAround::256-383           34      0.07%     99.98% # Reads before turning the bus around for writes
system.mem_ctrls2.rdPerTurnAround::384-511            4      0.01%     99.99% # Reads before turning the bus around for writes
system.mem_ctrls2.rdPerTurnAround::512-639            1      0.00%     99.99% # Reads before turning the bus around for writes
system.mem_ctrls2.rdPerTurnAround::768-895            2      0.00%    100.00% # Reads before turning the bus around for writes
system.mem_ctrls2.rdPerTurnAround::1152-1279            1      0.00%    100.00% # Reads before turning the bus around for writes
system.mem_ctrls2.rdPerTurnAround::2816-2943            1      0.00%    100.00% # Reads before turning the bus around for writes
system.mem_ctrls2.rdPerTurnAround::total        48813                       # Reads before turning the bus around for writes
system.mem_ctrls2.wrPerTurnAround::samples        48813                       # Writes before turning the bus around for reads
system.mem_ctrls2.wrPerTurnAround::mean      5.777231                       # Writes before turning the bus around for reads
system.mem_ctrls2.wrPerTurnAround::gmean     5.587761                       # Writes before turning the bus around for reads
system.mem_ctrls2.wrPerTurnAround::stdev     1.839475                       # Writes before turning the bus around for reads
system.mem_ctrls2.wrPerTurnAround::4-7          43158     88.41%     88.41% # Writes before turning the bus around for reads
system.mem_ctrls2.wrPerTurnAround::8-11          4303      8.82%     97.23% # Writes before turning the bus around for reads
system.mem_ctrls2.wrPerTurnAround::12-15          972      1.99%     99.22% # Writes before turning the bus around for reads
system.mem_ctrls2.wrPerTurnAround::16-19          380      0.78%    100.00% # Writes before turning the bus around for reads
system.mem_ctrls2.wrPerTurnAround::total        48813                       # Writes before turning the bus around for reads
system.mem_ctrls2.totQLat                 20010208913                       # Total ticks spent queuing
system.mem_ctrls2.totMemAccLat            31055477663                       # Total ticks spent from burst creation until serviced by the DRAM
system.mem_ctrls2.totBusLat                2945405000                       # Total ticks spent in databus transfers
system.mem_ctrls2.avgQLat                    33968.52                       # Average queueing delay per DRAM burst
system.mem_ctrls2.avgBusLat                   5000.00                       # Average bus latency per DRAM burst
system.mem_ctrls2.avgMemAccLat               52718.52                       # Average memory access latency per DRAM burst
system.mem_ctrls2.avgRdBW                      263.36                       # Average DRAM read bandwidth in MiByte/s
system.mem_ctrls2.avgWrBW                      126.07                       # Average achieved write bandwidth in MiByte/s
system.mem_ctrls2.avgRdBWSys                   263.37                       # Average system read bandwidth in MiByte/s
system.mem_ctrls2.avgWrBWSys                   126.07                       # Average system write bandwidth in MiByte/s
system.mem_ctrls2.peakBW                     12800.00                       # Theoretical peak bandwidth in MiByte/s
system.mem_ctrls2.busUtil                        3.04                       # Data bus utilization in percentage
system.mem_ctrls2.busUtilRead                    2.06                       # Data bus utilization in percentage for reads
system.mem_ctrls2.busUtilWrite                   0.98                       # Data bus utilization in percentage for writes
system.mem_ctrls2.avgRdQLen                      1.31                       # Average read queue length when enqueuing
system.mem_ctrls2.avgWrQLen                      3.01                       # Average write queue length when enqueuing
system.mem_ctrls2.readRowHits                  430039                       # Number of row buffer hits during reads
system.mem_ctrls2.writeRowHits                 171273                       # Number of row buffer hits during writes
system.mem_ctrls2.readRowHitRate                73.00                       # Row buffer hit rate for reads
system.mem_ctrls2.writeRowHitRate               60.73                       # Row buffer hit rate for writes
system.mem_ctrls2.avgGap                    164338.81                       # Average gap between requests
system.mem_ctrls2.pageHitRate                   69.03                       # Row buffer hit rate, read and write combined
system.mem_ctrls2.memoryStateTime::IDLE   23273904250                       # Time in different power states
system.mem_ctrls2.memoryStateTime::REF     4780100000                       # Time in different power states
system.mem_ctrls2.memoryStateTime::PRE_PDN            0                       # Time in different power states
system.mem_ctrls2.memoryStateTime::ACT   115096475750                       # Time in different power states
system.mem_ctrls2.memoryStateTime::ACT_PDN            0                       # Time in different power states
system.mem_ctrls2.actEnergy::0             1032015600                       # Energy for activate commands per rank (pJ)
system.mem_ctrls2.actEnergy::1             1007279280                       # Energy for activate commands per rank (pJ)
system.mem_ctrls2.preEnergy::0              563103750                       # Energy for precharge commands per rank (pJ)
system.mem_ctrls2.preEnergy::1              549606750                       # Energy for precharge commands per rank (pJ)
system.mem_ctrls2.readEnergy::0            2307216600                       # Energy for read commands per rank (pJ)
system.mem_ctrls2.readEnergy::1            2287404600                       # Energy for read commands per rank (pJ)
system.mem_ctrls2.writeEnergy::0            918287280                       # Energy for write commands per rank (pJ)
system.mem_ctrls2.writeEnergy::1            909033840                       # Energy for write commands per rank (pJ)
system.mem_ctrls2.refreshEnergy::0         9349875600                       # Energy for refresh commands per rank (pJ)
system.mem_ctrls2.refreshEnergy::1         9349875600                       # Energy for refresh commands per rank (pJ)
system.mem_ctrls2.actBackEnergy::0        62381015460                       # Energy for active background per rank (pJ)
system.mem_ctrls2.actBackEnergy::1        61848024705                       # Energy for active background per rank (pJ)
system.mem_ctrls2.preBackEnergy::0        31170090750                       # Energy for precharge background per rank (pJ)
system.mem_ctrls2.preBackEnergy::1        31637626500                       # Energy for precharge background per rank (pJ)
system.mem_ctrls2.totalEnergy::0         107721605040                       # Total energy per rank (pJ)
system.mem_ctrls2.totalEnergy::1         107588851275                       # Total energy per rank (pJ)
system.mem_ctrls2.averagePower::0          752.506142                       # Core power per rank (mW)
system.mem_ctrls2.averagePower::1          751.578769                       # Core power per rank (mW)
system.mem_ctrls3.bytes_read::ruby.dir_cntrl3     37653696                       # Number of bytes read from this memory
system.mem_ctrls3.bytes_read::total          37653696                       # Number of bytes read from this memory
system.mem_ctrls3.bytes_written::ruby.dir_cntrl3     18043840                       # Number of bytes written to this memory
system.mem_ctrls3.bytes_written::total       18043840                       # Number of bytes written to this memory
system.mem_ctrls3.num_reads::ruby.dir_cntrl3       588339                       # Number of read requests responded to by this memory
system.mem_ctrls3.num_reads::total             588339                       # Number of read requests responded to by this memory
system.mem_ctrls3.num_writes::ruby.dir_cntrl3       281935                       # Number of write requests responded to by this memory
system.mem_ctrls3.num_writes::total            281935                       # Number of write requests responded to by this memory
system.mem_ctrls3.bw_read::ruby.dir_cntrl3    263023358                       # Total read bandwidth from this memory (bytes/s)
system.mem_ctrls3.bw_read::total            263023358                       # Total read bandwidth from this memory (bytes/s)
system.mem_ctrls3.bw_write::ruby.dir_cntrl3    126042112                       # Write bandwidth from this memory (bytes/s)
system.mem_ctrls3.bw_write::total           126042112                       # Write bandwidth from this memory (bytes/s)
system.mem_ctrls3.bw_total::ruby.dir_cntrl3    389065470                       # Total bandwidth to/from this memory (bytes/s)
system.mem_ctrls3.bw_total::total           389065470                       # Total bandwidth to/from this memory (bytes/s)
system.mem_ctrls3.readReqs                     588339                       # Number of read requests accepted
system.mem_ctrls3.writeReqs                    281935                       # Number of write requests accepted
system.mem_ctrls3.readBursts                   588339                       # Number of DRAM read bursts, including those serviced by the write queue
system.mem_ctrls3.writeBursts                  281935                       # Number of DRAM write bursts, including those merged in the write queue
system.mem_ctrls3.bytesReadDRAM              37652544                       # Total number of bytes read from DRAM
system.mem_ctrls3.bytesReadWrQ                   1152                       # Total number of bytes read from write queue
system.mem_ctrls3.bytesWritten               18043840                       # Total number of bytes written to DRAM
system.mem_ctrls3.bytesReadSys               37653696                       # Total read bytes from the system interface side
system.mem_ctrls3.bytesWrittenSys            18043840                       # Total written bytes from the system interface side
system.mem_ctrls3.servicedByWrQ                    18                       # Number of DRAM read bursts serviced by the write queue
system.mem_ctrls3.mergedWrBursts                    0                       # Number of DRAM write bursts merged with an existing one
system.mem_ctrls3.neitherReadNorWriteReqs            0                       # Number of requests that are neither read nor write
system.mem_ctrls3.perBankRdBursts::0            36738                       # Per bank write bursts
system.mem_ctrls3.perBankRdBursts::1            37085                       # Per bank write bursts
system.mem_ctrls3.perBankRdBursts::2            36712                       # Per bank write bursts
system.mem_ctrls3.perBankRdBursts::3            37029                       # Per bank write bursts
system.mem_ctrls3.perBankRdBursts::4            36569                       # Per bank write bursts
system.mem_ctrls3.perBankRdBursts::5            36804                       # Per bank write bursts
system.mem_ctrls3.perBankRdBursts::6            37410                       # Per bank write bursts
system.mem_ctrls3.perBankRdBursts::7            37050                       # Per bank write bursts
system.mem_ctrls3.perBankRdBursts::8            36422                       # Per bank write bursts
system.mem_ctrls3.perBankRdBursts::9            36675                       # Per bank write bursts
system.mem_ctrls3.perBankRdBursts::10           36638                       # Per bank write bursts
system.mem_ctrls3.perBankRdBursts::11           36937                       # Per bank write bursts
system.mem_ctrls3.perBankRdBursts::12           36350                       # Per bank write bursts
system.mem_ctrls3.perBankRdBursts::13           36349                       # Per bank write bursts
system.mem_ctrls3.perBankRdBursts::14           36762                       # Per bank write bursts
system.mem_ctrls3.perBankRdBursts::15           36791                       # Per bank write bursts
system.mem_ctrls3.perBankWrBursts::0            17636                       # Per bank write bursts
system.mem_ctrls3.perBankWrBursts::1            17662                       # Per bank write bursts
system.mem_ctrls3.perBankWrBursts::2            17681                       # Per bank write bursts
system.mem_ctrls3.perBankWrBursts::3            17722                       # Per bank write bursts
system.mem_ctrls3.perBankWrBursts::4            17696                       # Per bank write bursts
system.mem_ctrls3.perBankWrBursts::5            17709                       # Per bank write bursts
system.mem_ctrls3.perBankWrBursts::6            17748                       # Per bank write bursts
system.mem_ctrls3.perBankWrBursts::7            17817                       # Per bank write bursts
system.mem_ctrls3.perBankWrBursts::8            17472                       # Per bank write bursts
system.mem_ctrls3.perBankWrBursts::9            17623                       # Per bank write bursts
system.mem_ctrls3.perBankWrBursts::10           17419                       # Per bank write bursts
system.mem_ctrls3.perBankWrBursts::11           17543                       # Per bank write bursts
system.mem_ctrls3.perBankWrBursts::12           17495                       # Per bank write bursts
system.mem_ctrls3.perBankWrBursts::13           17493                       # Per bank write bursts
system.mem_ctrls3.perBankWrBursts::14           17628                       # Per bank write bursts
system.mem_ctrls3.perBankWrBursts::15           17591                       # Per bank write bursts
system.mem_ctrls3.numRdRetry                        0                       # Number of times read queue was full causing retry
system.mem_ctrls3.numWrRetry                      987                       # Number of times write queue was full causing retry
system.mem_ctrls3.totGap                 143156215000                       # Total gap between requests
system.mem_ctrls3.readPktSize::0                    0                       # Read request sizes (log2)
system.mem_ctrls3.readPktSize::1                    0                       # Read request sizes (log2)
system.mem_ctrls3.readPktSize::2                    0                       # Read request sizes (log2)
system.mem_ctrls3.readPktSize::3                    0                       # Read request sizes (log2)
system.mem_ctrls3.readPktSize::4                    0                       # Read request sizes (log2)
system.mem_ctrls3.readPktSize::5                    0                       # Read request sizes (log2)
system.mem_ctrls3.readPktSize::6               588339                       # Read request sizes (log2)
system.mem_ctrls3.writePktSize::0                   0                       # Write request sizes (log2)
system.mem_ctrls3.writePktSize::1                   0                       # Write request sizes (log2)
system.mem_ctrls3.writePktSize::2                   0                       # Write request sizes (log2)
system.mem_ctrls3.writePktSize::3                   0                       # Write request sizes (log2)
system.mem_ctrls3.writePktSize::4                   0                       # Write request sizes (log2)
system.mem_ctrls3.writePktSize::5                   0                       # Write request sizes (log2)
system.mem_ctrls3.writePktSize::6              281935                       # Write request sizes (log2)
system.mem_ctrls3.rdQLenPdf::0                 283351                       # What read queue length does an incoming req see
system.mem_ctrls3.rdQLenPdf::1                  97877                       # What read queue length does an incoming req see
system.mem_ctrls3.rdQLenPdf::2                  63258                       # What read queue length does an incoming req see
system.mem_ctrls3.rdQLenPdf::3                  46733                       # What read queue length does an incoming req see
system.mem_ctrls3.rdQLenPdf::4                  33004                       # What read queue length does an incoming req see
system.mem_ctrls3.rdQLenPdf::5                  23324                       # What read queue length does an incoming req see
system.mem_ctrls3.rdQLenPdf::6                  15790                       # What read queue length does an incoming req see
system.mem_ctrls3.rdQLenPdf::7                  10098                       # What read queue length does an incoming req see
system.mem_ctrls3.rdQLenPdf::8                   5558                       # What read queue length does an incoming req see
system.mem_ctrls3.rdQLenPdf::9                   3773                       # What read queue length does an incoming req see
system.mem_ctrls3.rdQLenPdf::10                  2336                       # What read queue length does an incoming req see
system.mem_ctrls3.rdQLenPdf::11                  1454                       # What read queue length does an incoming req see
system.mem_ctrls3.rdQLenPdf::12                   814                       # What read queue length does an incoming req see
[...]
system.ruby.L2Cache_Controller.I_I.Ack_all::total        16460                      
system.ruby.L2Cache_Controller.S_I.Ack   |           0      0.00%      0.00% |           0      0.00%      0.00% |           0      0.00%      0.00% |           0      0.00%      0.00% |           0      0.00%      0.00% |           0      0.00%      0.00% |           0      0.00%      0.00% |           0      0.00%      0.00% |           0      0.00%      0.00% |           0      0.00%      0.00% |           0      0.00%      0.00% |           0      0.00%      0.00% |           0      0.00%      0.00% |           0      0.00%      0.00% |           0      0.00%      0.00% |           0      0.00%      0.00% |           0      0.00%      0.00% |           0      0.00%      0.00% |           0      0.00%      0.00% |           0      0.00%      0.00% |           0      0.00%      0.00% |           2     40.00%     40.00% |           0      0.00%     40.00% |           0      0.00%     40.00% |           0      0.00%     40.00% |           0      0.00%     40.00% |           1     20.00%     60.00% |           0      0.00%     60.00% |           0      0.00%     60.00% |           0      0.00%     60.00% |           0      0.00%     60.00% |           2     40.00%    100.00%
system.ruby.L2Cache_Controller.S_I.Ack::total            5                      
system.ruby.L2Cache_Controller.S_I.Ack_all |           1      5.00%      5.00% |           1      5.00%     10.00% |           1      5.00%     15.00% |           1      5.00%     20.00% |           0      0.00%     20.00% |           3     15.00%     35.00% |           2     10.00%     45.00% |           0      0.00%     45.00% |           0      0.00%     45.00% |           1      5.00%     50.00% |           0      0.00%     50.00% |           0      0.00%     50.00% |           1      5.00%     55.00% |           0      0.00%     55.00% |           1      5.00%     60.00% |           0      0.00%     60.00% |           0      0.00%     60.00% |           0      0.00%     60.00% |           1      5.00%     65.00% |           0      0.00%     65.00% |           0      0.00%     65.00% |           2     10.00%     75.00% |           0      0.00%     75.00% |           0      0.00%     75.00% |           2     10.00%     85.00% |           0      0.00%     85.00% |           1      5.00%     90.00% |           0      0.00%     90.00% |           0      0.00%     90.00% |           0      0.00%     90.00% |           0      0.00%     90.00% |           2     10.00%    100.00%
system.ruby.L2Cache_Controller.S_I.Ack_all::total           20                      
system.ruby.L2Cache_Controller.ISS.Mem_Data |       47356      3.82%      3.82% |       38487      3.11%      6.93% |       38553      3.11%     10.04% |       38422      3.10%     13.14% |       38431      3.10%     16.24% |       38447      3.10%     19.34% |       38471      3.10%     22.45% |       38434      3.10%     25.55% |       38471      3.10%     28.66% |       38525      3.11%     31.76% |       38635      3.12%     34.88% |       38466      3.10%     37.99% |       38453      3.10%     41.09% |       38448      3.10%     44.19% |       38468      3.10%     47.30% |       38334      3.09%     50.39% |       38397      3.10%     53.49% |       38371      3.10%     56.59% |       38438      3.10%     59.69% |       38368      3.10%     62.79% |       38419      3.10%     65.89% |       38513      3.11%     68.99% |       38489      3.11%     72.10% |       38349      3.09%     75.20% |       38385      3.10%     78.29% |       38436      3.10%     81.39% |       38414      3.10%     84.50% |       38342      3.09%     87.59% |       38431      3.10%     90.69% |       38421      3.10%     93.79% |       38408      3.10%     96.89% |       38519      3.11%    100.00%
system.ruby.L2Cache_Controller.ISS.Mem_Data::total      1239101                      
system.ruby.L2Cache_Controller.IS.Mem_Data |         524      3.18%      3.18% |         460      2.79%      5.97% |         481      2.92%      8.89% |         461      2.80%     11.69% |         483      2.93%     14.62% |         441      2.68%     17.29% |         473      2.87%     20.16% |         502      3.05%     23.21% |         537      3.26%     26.47% |         485      2.94%     29.41% |         505      3.06%     32.47% |         510      3.09%     35.57% |         614      3.73%     39.29% |         549      3.33%     42.62% |         513      3.11%     45.74% |         539      3.27%     49.01% |         548      3.33%     52.33% |         560      3.40%     55.73% |         542      3.29%     59.02% |         493      2.99%     62.01% |         482      2.92%     64.94% |         536      3.25%     68.19% |         505      3.06%     71.25% |         489      2.97%     74.22% |         530      3.22%     77.43% |         587      3.56%     81.00% |         527      3.20%     84.19% |         481      2.92%     87.11% |         484      2.94%     90.05% |         559      3.39%     93.44% |         550      3.34%     96.78% |         531      3.22%    100.00%
system.ruby.L2Cache_Controller.IS.Mem_Data::total        16481                      
system.ruby.L2Cache_Controller.IM.Mem_Data |       34717      3.13%      3.13% |       34634      3.12%      6.26% |       34647      3.13%      9.38% |       34648      3.13%     12.51% |       34628      3.12%     15.63% |       34636      3.12%     18.75% |       34634      3.12%     21.88% |       34629      3.12%     25.00% |       34642      3.12%     28.13% |       34639      3.12%     31.25% |       34622      3.12%     34.37% |       34643      3.12%     37.50% |       34637      3.12%     40.62% |       34633      3.12%     43.75% |       34631      3.12%     46.87% |       34627      3.12%     49.99% |       34644      3.12%     53.12% |       34649      3.13%     56.24% |       34646      3.13%     59.37% |       34635      3.12%     62.49% |       34700      3.13%     65.62% |       34689      3.13%     68.75% |       34633      3.12%     71.88% |       34638      3.12%     75.00% |       34646      3.13%     78.12% |       34636      3.12%     81.25% |       34650      3.13%     84.37% |       34645      3.12%     87.50% |       34640      3.12%     90.62% |       34649      3.13%     93.75% |       34668      3.13%     96.88% |       34634      3.12%    100.00%
system.ruby.L2Cache_Controller.IM.Mem_Data::total      1108649                      
system.ruby.L2Cache_Controller.SS_MB.Exclusive_Unblock |           2      5.26%      5.26% |           2      5.26%     10.53% |           1      2.63%     13.16% |           1      2.63%     15.79% |           0      0.00%     15.79% |           1      2.63%     18.42% |           0      0.00%     18.42% |           0      0.00%     18.42% |           0      0.00%     18.42% |           2      5.26%     23.68% |           0      0.00%     23.68% |           0      0.00%     23.68% |           5     13.16%     36.84% |           0      0.00%     36.84% |           4     10.53%     47.37% |           0      0.00%     47.37% |           0      0.00%     47.37% |           0      0.00%     47.37% |           8     21.05%     68.42% |           3      7.89%     76.32% |           1      2.63%     78.95% |           0      0.00%     78.95% |           0      0.00%     78.95% |           0      0.00%     78.95% |           3      7.89%     86.84% |           0      0.00%     86.84% |           2      5.26%     92.11% |           0      0.00%     92.11% |           2      5.26%     97.37% |           0      0.00%     97.37% |           1      2.63%    100.00% |           0      0.00%    100.00%
system.ruby.L2Cache_Controller.SS_MB.Exclusive_Unblock::total           38                      
system.ruby.L2Cache_Controller.MT_MB.L1_PUTX |          13      3.29%      3.29% |           6      1.52%      4.81% |          12      3.04%      7.85% |           9      2.28%     10.13% |           5      1.27%     11.39% |           6      1.52%     12.91% |           2      0.51%     13.42% |           8      2.03%     15.44% |          10      2.53%     17.97% |          19      4.81%     22.78% |           5      1.27%     24.05% |          20      5.06%     29.11% |          30      7.59%     36.71% |          12      3.04%     39.75% |           6      1.52%     41.27% |          11      2.78%     44.05% |           8      2.03%     46.08% |          11      2.78%     48.86% |          15      3.80%     52.66% |          16      4.05%     56.71% |          14      3.54%     60.25% |           5      1.27%     61.52% |           8      2.03%     63.54% |          49     12.41%     75.95% |          31      7.85%     83.80% |           8      2.03%     85.82% |          12      3.04%     88.86% |          12      3.04%     91.90% |           6      1.52%     93.42% |           7      1.77%     95.19% |          11      2.78%     97.97% |           8      2.03%    100.00%
system.ruby.L2Cache_Controller.MT_MB.L1_PUTX::total          395                      
system.ruby.L2Cache_Controller.MT_MB.L1_PUTX_old |           1     25.00%     25.00% |           0      0.00%     25.00% |           0      0.00%     25.00% |           0      0.00%     25.00% |           1     25.00%     50.00% |           0      0.00%     50.00% |           0      0.00%     50.00% |           0      0.00%     50.00% |           0      0.00%     50.00% |           0      0.00%     50.00% |           0      0.00%     50.00% |           0      0.00%     50.00% |           0      0.00%     50.00% |           0      0.00%     50.00% |           1     25.00%     75.00% |           0      0.00%     75.00% |           0      0.00%     75.00% |           0      0.00%     75.00% |           0      0.00%     75.00% |           0      0.00%     75.00% |           0      0.00%     75.00% |           0      0.00%     75.00% |           0      0.00%     75.00% |           1     25.00%    100.00% |           0      0.00%    100.00% |           0      0.00%    100.00% |           0      0.00%    100.00% |           0      0.00%    100.00% |           0      0.00%    100.00% |           0      0.00%    100.00% |           0      0.00%    100.00% |           0      0.00%    100.00%
system.ruby.L2Cache_Controller.MT_MB.L1_PUTX_old::total            4                      
system.ruby.L2Cache_Controller.MT_MB.Exclusive_Unblock |      223681      5.14%      5.14% |      133226      3.06%      8.20% |      131943      3.03%     11.23% |      134045      3.08%     14.31% |      132013      3.03%     17.34% |      131281      3.02%     20.35% |      131331      3.02%     23.37% |      130843      3.00%     26.37% |      131228      3.01%     29.39% |      131892      3.03%     32.42% |      133802      3.07%     35.49% |      132714      3.05%     38.54% |      131553      3.02%     41.56% |      132051      3.03%     44.59% |      130677      3.00%     47.59% |      130858      3.01%     50.60% |      131855      3.03%     53.63% |      131806      3.03%     56.65% |      132097      3.03%     59.69% |      132329      3.04%     62.73% |      132473      3.04%     65.77% |      147210      3.38%     69.15% |      140712      3.23%     72.38% |      131514      3.02%     75.40% |      131967      3.03%     78.43% |      132194      3.04%     81.47% |      131827      3.03%     84.49% |      131644      3.02%     87.52% |      132940      3.05%     90.57% |      132007      3.03%     93.60% |      135594      3.11%     96.72% |      142950      3.28%    100.00%
system.ruby.L2Cache_Controller.MT_MB.Exclusive_Unblock::total      4354257                      
system.ruby.L2Cache_Controller.MT_IIB.WB_Data |           0      0.00%      0.00% |           0      0.00%      0.00% |           0      0.00%      0.00% |           0      0.00%      0.00% |           0      0.00%      0.00% |           0      0.00%      0.00% |           0      0.00%      0.00% |           0      0.00%      0.00% |           0      0.00%      0.00% |           0      0.00%      0.00% |           0      0.00%      0.00% |           0      0.00%      0.00% |           0      0.00%      0.00% |           0      0.00%      0.00% |           0      0.00%      0.00% |           0      0.00%      0.00% |           0      0.00%      0.00% |           0      0.00%      0.00% |           0      0.00%      0.00% |           0      0.00%      0.00% |           0      0.00%      0.00% |           2     40.00%     40.00% |           0      0.00%     40.00% |           0      0.00%     40.00% |           0      0.00%     40.00% |           0      0.00%     40.00% |           1     20.00%     60.00% |           0      0.00%     60.00% |           0      0.00%     60.00% |           0      0.00%     60.00% |           0      0.00%     60.00% |           2     40.00%    100.00%
system.ruby.L2Cache_Controller.MT_IIB.WB_Data::total            5                      
system.ruby.L2Cache_Controller.MT_SB.Unblock |           0      0.00%      0.00% |           0      0.00%      0.00% |           0      0.00%      0.00% |           0      0.00%      0.00% |           0      0.00%      0.00% |           0      0.00%      0.00% |           0      0.00%      0.00% |           0      0.00%      0.00% |           0      0.00%      0.00% |           0      0.00%      0.00% |           0      0.00%      0.00% |           0      0.00%      0.00% |           0      0.00%      0.00% |           0      0.00%      0.00% |           0      0.00%      0.00% |           0      0.00%      0.00% |           0      0.00%      0.00% |           0      0.00%      0.00% |           0      0.00%      0.00% |           0      0.00%      0.00% |           0      0.00%      0.00% |           2     40.00%     40.00% |           0      0.00%     40.00% |           0      0.00%     40.00% |           0      0.00%     40.00% |           0      0.00%     40.00% |           1     20.00%     60.00% |           0      0.00%     60.00% |           0      0.00%     60.00% |           0      0.00%     60.00% |           0      0.00%     60.00% |           2     40.00%    100.00%
system.ruby.L2Cache_Controller.MT_SB.Unblock::total            5                      
system.ruby.SimicsNetworkPortInterface_Controller.MessageSend |      470870     20.67%     20.67% |     1138894     50.00%     70.67% |      668024     29.33%    100.00% |           0      0.00%    100.00% |           0      0.00%    100.00% |           0      0.00%    100.00% |           0      0.00%    100.00% |           0      0.00%    100.00% |           0      0.00%    100.00% |           0      0.00%    100.00% |           0      0.00%    100.00% |           0      0.00%    100.00% |           0      0.00%    100.00% |           0      0.00%    100.00% |           0      0.00%    100.00% |           0      0.00%    100.00% |           0      0.00%    100.00% |           0      0.00%    100.00% |           0      0.00%    100.00% |           0      0.00%    100.00% |           0      0.00%    100.00% |           0      0.00%    100.00% |           0      0.00%    100.00% |           0      0.00%    100.00% |           0      0.00%    100.00% |           0      0.00%    100.00% |           0      0.00%    100.00% |           0      0.00%    100.00% |           0      0.00%    100.00% |           0      0.00%    100.00% |           0      0.00%    100.00% |           0      0.00%    100.00%
system.ruby.SimicsNetworkPortInterface_Controller.MessageSend::total      2277788                      
system.ruby.SimicsNetworkPortInterface_Controller.MessageRecv |      470870     20.67%     20.67% |     1138894     50.00%     70.67% |      668024     29.33%    100.00% |           0      0.00%    100.00% |           0      0.00%    100.00% |           0      0.00%    100.00% |           0      0.00%    100.00% |           0      0.00%    100.00% |           0      0.00%    100.00% |           0      0.00%    100.00% |           0      0.00%    100.00% |           0      0.00%    100.00% |           0      0.00%    100.00% |           0      0.00%    100.00% |           0      0.00%    100.00% |           0      0.00%    100.00% |           0      0.00%    100.00% |           0      0.00%    100.00% |           0      0.00%    100.00% |           0      0.00%    100.00% |           0      0.00%    100.00% |           0      0.00%    100.00% |           0      0.00%    100.00% |           0      0.00%    100.00% |           0      0.00%    100.00% |           0      0.00%    100.00% |           0      0.00%    100.00% |           0      0.00%    100.00% |           0      0.00%    100.00% |           0      0.00%    100.00% |           0      0.00%    100.00% |           0      0.00%    100.00%
system.ruby.SimicsNetworkPortInterface_Controller.MessageRecv::total      2277788                      
system.ruby.SimicsNetworkPortInterface_Controller.A.MessageSend |      470870     20.67%     20.67% |     1138894     50.00%     70.67% |      668024     29.33%    100.00% |           0      0.00%    100.00% |           0      0.00%    100.00% |           0      0.00%    100.00% |           0      0.00%    100.00% |           0      0.00%    100.00% |           0      0.00%    100.00% |           0      0.00%    100.00% |           0      0.00%    100.00% |           0      0.00%    100.00% |           0      0.00%    100.00% |           0      0.00%    100.00% |           0      0.00%    100.00% |           0      0.00%    100.00% |           0      0.00%    100.00% |           0      0.00%    100.00% |           0      0.00%    100.00% |           0      0.00%    100.00% |           0      0.00%    100.00% |           0      0.00%    100.00% |           0      0.00%    100.00% |           0      0.00%    100.00% |           0      0.00%    100.00% |           0      0.00%    100.00% |           0      0.00%    100.00% |           0      0.00%    100.00% |           0      0.00%    100.00% |           0      0.00%    100.00% |           0      0.00%    100.00% |           0      0.00%    100.00%
system.ruby.SimicsNetworkPortInterface_Controller.A.MessageSend::total      2277788                      
system.ruby.SimicsNetworkPortInterface_Controller.A.MessageRecv |      470870     20.67%     20.67% |     1138894     50.00%     70.67% |      668024     29.33%    100.00% |           0      0.00%    100.00% |           0      0.00%    100.00% |           0      0.00%    100.00% |           0      0.00%    100.00% |           0      0.00%    100.00% |           0      0.00%    100.00% |           0      0.00%    100.00% |           0      0.00%    100.00% |           0      0.00%    100.00% |           0      0.00%    100.00% |           0      0.00%    100.00% |           0      0.00%    100.00% |           0      0.00%    100.00% |           0      0.00%    100.00% |           0      0.00%    100.00% |           0      0.00%    100.00% |           0      0.00%    100.00% |           0      0.00%    100.00% |           0      0.00%    100.00% |           0      0.00%    100.00% |           0      0.00%    100.00% |           0      0.00%    100.00% |           0      0.00%    100.00% |           0      0.00%    100.00% |           0      0.00%    100.00% |           0      0.00%    100.00% |           0      0.00%    100.00% |           0      0.00%    100.00% |           0      0.00%    100.00%
system.ruby.SimicsNetworkPortInterface_Controller.A.MessageRecv::total      2277788                      
system.switch_cpus.kern.inst.arm                    0                       # number of arm instructions executed
system.switch_cpus.kern.inst.quiesce                0                       # number of quiesce instructions executed

---------- End Simulation Statistics   ----------
