
---------- Begin Simulation Statistics ----------
sim_seconds                                  0.122202                       # Number of seconds simulated
sim_ticks                                122201763500                       # Number of ticks simulated
final_tick                               5298369842000                       # Number of ticks from beginning of simulation (restored from checkpoints and never reset)
sim_freq                                 1000000000000                       # Frequency of simulated ticks
host_inst_rate                                  18496                       # Simulator instruction rate (inst/s)
host_op_rate                                    32528                       # Simulator op (including micro ops) rate (op/s)
host_tick_rate                               39225700                       # Simulator tick rate (ticks/s)
host_mem_usage                                6332940                       # Number of bytes of host memory used
host_seconds                                  3115.35                       # Real time elapsed on the host
sim_insts                                    57620698                       # Number of instructions simulated
sim_ops                                     101336399                       # Number of ops (including micro ops) simulated
system.voltage_domain.voltage                       1                       # Voltage in Volts
system.clk_domain.clock                           500                       # Clock period in ticks
system.mem_ctrls0.bytes_read::ruby.dir_cntrl0     55863296                       # Number of bytes read from this memory
system.mem_ctrls0.bytes_read::total          55863296                       # Number of bytes read from this memory
system.mem_ctrls0.bytes_written::ruby.dir_cntrl0     23288384                       # Number of bytes written to this memory
system.mem_ctrls0.bytes_written::total       23288384                       # Number of bytes written to this memory
system.mem_ctrls0.num_reads::ruby.dir_cntrl0       872864                       # Number of read requests responded to by this memory
system.mem_ctrls0.num_reads::total             872864                       # Number of read requests responded to by this memory
system.mem_ctrls0.num_writes::ruby.dir_cntrl0       363881                       # Number of write requests responded to by this memory
system.mem_ctrls0.num_writes::total            363881                       # Number of write requests responded to by this memory
system.mem_ctrls0.bw_read::ruby.dir_cntrl0    457139851                       # Total read bandwidth from this memory (bytes/s)
system.mem_ctrls0.bw_read::total            457139851                       # Total read bandwidth from this memory (bytes/s)
system.mem_ctrls0.bw_write::ruby.dir_cntrl0    190573224                       # Write bandwidth from this memory (bytes/s)
system.mem_ctrls0.bw_write::total           190573224                       # Write bandwidth from this memory (bytes/s)
system.mem_ctrls0.bw_total::ruby.dir_cntrl0    647713075                       # Total bandwidth to/from this memory (bytes/s)
system.mem_ctrls0.bw_total::total           647713075                       # Total bandwidth to/from this memory (bytes/s)
system.mem_ctrls0.readReqs                     872864                       # Number of read requests accepted
system.mem_ctrls0.writeReqs                    363881                       # Number of write requests accepted
system.mem_ctrls0.readBursts                   872864                       # Number of DRAM read bursts, including those serviced by the write queue
system.mem_ctrls0.writeBursts                  363881                       # Number of DRAM write bursts, including those merged in the write queue
system.mem_ctrls0.bytesReadDRAM              55852672                       # Total number of bytes read from DRAM
system.mem_ctrls0.bytesReadWrQ                  10624                       # Total number of bytes read from write queue
system.mem_ctrls0.bytesWritten               23288192                       # Total number of bytes written to DRAM
system.mem_ctrls0.bytesReadSys               55863296                       # Total read bytes from the system interface side
system.mem_ctrls0.bytesWrittenSys            23288384                       # Total written bytes from the system interface side
system.mem_ctrls0.servicedByWrQ                   166                       # Number of DRAM read bursts serviced by the write queue
system.mem_ctrls0.mergedWrBursts                    0                       # Number of DRAM write bursts merged with an existing one
system.mem_ctrls0.neitherReadNorWriteReqs            0                       # Number of requests that are neither read nor write
system.mem_ctrls0.perBankRdBursts::0            56553                       # Per bank write bursts
system.mem_ctrls0.perBankRdBursts::1            55170                       # Per bank write bursts
system.mem_ctrls0.perBankRdBursts::2            54211                       # Per bank write bursts
system.mem_ctrls0.perBankRdBursts::3            53766                       # Per bank write bursts
system.mem_ctrls0.perBankRdBursts::4            53495                       # Per bank write bursts
system.mem_ctrls0.perBankRdBursts::5            53764                       # Per bank write bursts
system.mem_ctrls0.perBankRdBursts::6            55853                       # Per bank write bursts
system.mem_ctrls0.perBankRdBursts::7            55509                       # Per bank write bursts
system.mem_ctrls0.perBankRdBursts::8            55094                       # Per bank write bursts
system.mem_ctrls0.perBankRdBursts::9            54536                       # Per bank write bursts
system.mem_ctrls0.perBankRdBursts::10           53758                       # Per bank write bursts
system.mem_ctrls0.perBankRdBursts::11           53560                       # Per bank write bursts
system.mem_ctrls0.perBankRdBursts::12           53021                       # Per bank write bursts
system.mem_ctrls0.perBankRdBursts::13           53650                       # Per bank write bursts
system.mem_ctrls0.perBankRdBursts::14           54949                       # Per bank write bursts
system.mem_ctrls0.perBankRdBursts::15           55809                       # Per bank write bursts
system.mem_ctrls0.perBankWrBursts::0            22917                       # Per bank write bursts
system.mem_ctrls0.perBankWrBursts::1            22887                       # Per bank write bursts
system.mem_ctrls0.perBankWrBursts::2            22670                       # Per bank write bursts
system.mem_ctrls0.perBankWrBursts::3            22792                       # Per bank write bursts
system.mem_ctrls0.perBankWrBursts::4            22586                       # Per bank write bursts
system.mem_ctrls0.perBankWrBursts::5            22837                       # Per bank write bursts
system.mem_ctrls0.perBankWrBursts::6            23072                       # Per bank write bursts
system.mem_ctrls0.perBankWrBursts::7            23320                       # Per bank write bursts
system.mem_ctrls0.perBankWrBursts::8            22711                       # Per bank write bursts
system.mem_ctrls0.perBankWrBursts::9            22702                       # Per bank write bursts
system.mem_ctrls0.perBankWrBursts::10           22249                       # Per bank write bursts
system.mem_ctrls0.perBankWrBursts::11           22467                       # Per bank write bursts
system.mem_ctrls0.perBankWrBursts::12           22278                       # Per bank write bursts
system.mem_ctrls0.perBankWrBursts::13           22583                       # Per bank write bursts
system.mem_ctrls0.perBankWrBursts::14           22753                       # Per bank write bursts
system.mem_ctrls0.perBankWrBursts::15           23054                       # Per bank write bursts
system.mem_ctrls0.numRdRetry                   127186                       # Number of times read queue was full causing retry
system.mem_ctrls0.numWrRetry                    27719                       # Number of times write queue was full causing retry
system.mem_ctrls0.totGap                 122201263500                       # Total gap between requests
system.mem_ctrls0.readPktSize::0                    0                       # Read request sizes (log2)
system.mem_ctrls0.readPktSize::1                    0                       # Read request sizes (log2)
system.mem_ctrls0.readPktSize::2                    0                       # Read request sizes (log2)
system.mem_ctrls0.readPktSize::3                    0                       # Read request sizes (log2)
system.mem_ctrls0.readPktSize::4                    0                       # Read request sizes (log2)
system.mem_ctrls0.readPktSize::5                    0                       # Read request sizes (log2)
system.mem_ctrls0.readPktSize::6               872864                       # Read request sizes (log2)
system.mem_ctrls0.writePktSize::0                   0                       # Write request sizes (log2)
system.mem_ctrls0.writePktSize::1                   0                       # Write request sizes (log2)
system.mem_ctrls0.writePktSize::2                   0                       # Write request sizes (log2)
system.mem_ctrls0.writePktSize::3                   0                       # Write request sizes (log2)
system.mem_ctrls0.writePktSize::4                   0                       # Write request sizes (log2)
system.mem_ctrls0.writePktSize::5                   0                       # Write request sizes (log2)
system.mem_ctrls0.writePktSize::6              363881                       # Write request sizes (log2)
system.mem_ctrls0.rdQLenPdf::0                 183477                       # What read queue length does an incoming req see
system.mem_ctrls0.rdQLenPdf::1                  27894                       # What read queue length does an incoming req see
system.mem_ctrls0.rdQLenPdf::2                  26157                       # What read queue length does an incoming req see
system.mem_ctrls0.rdQLenPdf::3                  26754                       # What read queue length does an incoming req see
system.mem_ctrls0.rdQLenPdf::4                  26914                       # What read queue length does an incoming req see
system.mem_ctrls0.rdQLenPdf::5                  27244                       # What read queue length does an incoming req see
system.mem_ctrls0.rdQLenPdf::6                  27075                       # What read queue length does an incoming req see
system.mem_ctrls0.rdQLenPdf::7                  26696                       # What read queue length does an incoming req see
system.mem_ctrls0.rdQLenPdf::8                  26498                       # What read queue length does an incoming req see
system.mem_ctrls0.rdQLenPdf::9                  25620                       # What read queue length does an incoming req see
system.mem_ctrls0.rdQLenPdf::10                 24744                       # What read queue length does an incoming req see
system.mem_ctrls0.rdQLenPdf::11                 23731                       # What read queue length does an incoming req see
system.mem_ctrls0.rdQLenPdf::12                 22691                       # What read queue length does an incoming req see
system.mem_ctrls0.rdQLenPdf::13                 21782                       # What read queue length does an incoming req see
system.mem_ctrls0.rdQLenPdf::14                 20541                       # What read queue length does an incoming req see
system.mem_ctrls0.rdQLenPdf::15                 19003                       # What read queue length does an incoming req see
system.mem_ctrls0.rdQLenPdf::16                 18045                       # What read queue length does an incoming req see
system.mem_ctrls0.rdQLenPdf::17                 16889                       # What read queue length does an incoming req see
system.mem_ctrls0.rdQLenPdf::18                 15897                       # What read queue length does an incoming req see
system.mem_ctrls0.rdQLenPdf::19                 15123                       # What read queue length does an incoming req see
system.mem_ctrls0.rdQLenPdf::20                 14166                       # What read queue length does an incoming req see
system.mem_ctrls0.rdQLenPdf::21                 13092                       # What read queue length does an incoming req see
system.mem_ctrls0.rdQLenPdf::22                 12100                       # What read queue length does an incoming req see
system.mem_ctrls0.rdQLenPdf::23                 11421                       # What read queue length does an incoming req see
system.mem_ctrls0.rdQLenPdf::24                 10590                       # What read queue length does an incoming req see
system.mem_ctrls0.rdQLenPdf::25                 10104                       # What read queue length does an incoming req see
system.mem_ctrls0.rdQLenPdf::26                  9459                       # What read queue length does an incoming req see
system.mem_ctrls0.rdQLenPdf::27                  8895                       # What read queue length does an incoming req see
system.mem_ctrls0.rdQLenPdf::28                  8307                       # What read queue length does an incoming req see
system.mem_ctrls0.rdQLenPdf::29                  8160                       # What read queue length does an incoming req see
system.mem_ctrls0.rdQLenPdf::30                  8015                       # What read queue length does an incoming req see
system.mem_ctrls0.rdQLenPdf::31                135614                       # What read queue length does an incoming req see
system.mem_ctrls0.wrQLenPdf::0                  47931                       # What write queue length does an incoming req see
system.mem_ctrls0.wrQLenPdf::1                  52326                       # What write queue length does an incoming req see
system.mem_ctrls0.wrQLenPdf::2                  55341                       # What write queue length does an incoming req see
system.mem_ctrls0.wrQLenPdf::3                  57299                       # What write queue length does an incoming req see
system.mem_ctrls0.wrQLenPdf::4                  59152                       # What write queue length does an incoming req see
system.mem_ctrls0.wrQLenPdf::5                  23170                       # What write queue length does an incoming req see
system.mem_ctrls0.wrQLenPdf::6                  23555                       # What write queue length does an incoming req see
system.mem_ctrls0.wrQLenPdf::7                  45107                       # What write queue length does an incoming req see
system.mem_ctrls0.bytesPerActivate::samples       373581                       # Bytes accessed per row activation
system.mem_ctrls0.bytesPerActivate::mean   211.841009                       # Bytes accessed per row activation
system.mem_ctrls0.bytesPerActivate::gmean   156.446530                       # Bytes accessed per row activation
system.mem_ctrls0.bytesPerActivate::stdev   175.348620                       # Bytes accessed per row activation
system.mem_ctrls0.bytesPerActivate::0-127       125419     33.57%     33.57% # Bytes accessed per row activation
system.mem_ctrls0.bytesPerActivate::128-255       111072     29.73%     63.30% # Bytes accessed per row activation
system.mem_ctrls0.bytesPerActivate::256-383        78907     21.12%     84.43% # Bytes accessed per row activation
system.mem_ctrls0.bytesPerActivate::384-511        24725      6.62%     91.04% # Bytes accessed per row activation
system.mem_ctrls0.bytesPerActivate::512-639        19489      5.22%     96.26% # Bytes accessed per row activation
system.mem_ctrls0.bytesPerActivate::640-767         6254      1.67%     97.93% # Bytes accessed per row activation
system.mem_ctrls0.bytesPerActivate::768-895         4075      1.09%     99.03% # Bytes accessed per row activation
system.mem_ctrls0.bytesPerActivate::896-1023         2877      0.77%     99.80% # Bytes accessed per row activation
system.mem_ctrls0.bytesPerActivate::1024-1151          763      0.20%    100.00% # Bytes accessed per row activation
system.mem_ctrls0.bytesPerActivate::total       373581                       # Bytes accessed per row activation
system.mem_ctrls0.rdPerTurnAround::samples        50944                       # Reads before turning the bus around for writes
system.mem_ctrls0.rdPerTurnAround::mean     17.130437                       # Reads before turning the bus around for writes
system.mem_ctrls0.rdPerTurnAround::stdev    32.829236                       # Reads before turning the bus around for writes
system.mem_ctrls0.rdPerTurnAround::0-127        50533     99.19%     99.19% # Reads before turning the bus around for writes
system.mem_ctrls0.rdPerTurnAround::128-255          354      0.69%     99.89% # Reads before turning the bus around for writes
system.mem_ctrls0.rdPerTurnAround::256-383           29      0.06%     99.95% # Reads before turning the bus around for writes
system.mem_ctrls0.rdPerTurnAround::384-511           13      0.03%     99.97% # Reads before turning the bus around for writes
system.mem_ctrls0.rdPerTurnAround::512-639            7      0.01%     99.98% # Reads before turning the bus around for writes
system.mem_ctrls0.rdPerTurnAround::640-767            2      0.00%     99.99% # Reads before turning the bus around for writes
system.mem_ctrls0.rdPerTurnAround::768-895            2      0.00%     99.99% # Reads before turning the bus around for writes
system.mem_ctrls0.rdPerTurnAround::896-1023            1      0.00%     99.99% # Reads before turning the bus around for writes
system.mem_ctrls0.rdPerTurnAround::1024-1151            2      0.00%    100.00% # Reads before turning the bus around for writes
system.mem_ctrls0.rdPerTurnAround::3968-4095            1      0.00%    100.00% # Reads before turning the bus around for writes
system.mem_ctrls0.rdPerTurnAround::total        50944                       # Reads before turning the bus around for writes
system.mem_ctrls0.wrPerTurnAround::samples        50944                       # Writes before turning the bus around for reads
system.mem_ctrls0.wrPerTurnAround::mean      7.142706                       # Writes before turning the bus around for reads
system.mem_ctrls0.wrPerTurnAround::gmean     6.501478                       # Writes before turning the bus around for reads
system.mem_ctrls0.wrPerTurnAround::stdev     3.555667                       # Writes before turning the bus around for reads
system.mem_ctrls0.wrPerTurnAround::4-7          36706     72.05%     72.05% # Writes before turning the bus around for reads
system.mem_ctrls0.wrPerTurnAround::8-11          6442     12.65%     84.70% # Writes before turning the bus around for reads
system.mem_ctrls0.wrPerTurnAround::12-15         4099      8.05%     92.74% # Writes before turning the bus around for reads
system.mem_ctrls0.wrPerTurnAround::16-19         3697      7.26%    100.00% # Writes before turning the bus around for reads
system.mem_ctrls0.wrPerTurnAround::total        50944                       # Writes before turning the bus around for reads
system.mem_ctrls0.totQLat                112344728588                       # Total ticks spent queuing
system.mem_ctrls0.totMemAccLat           128707816088                       # Total ticks spent from burst creation until serviced by the DRAM
system.mem_ctrls0.totBusLat                4363490000                       # Total ticks spent in databus transfers
system.mem_ctrls0.avgQLat                   128732.65                       # Average queueing delay per DRAM burst
system.mem_ctrls0.avgBusLat                   5000.00                       # Average bus latency per DRAM burst
system.mem_ctrls0.avgMemAccLat              147482.65                       # Average memory access latency per DRAM burst
system.mem_ctrls0.avgRdBW                      457.05                       # Average DRAM read bandwidth in MiByte/s
system.mem_ctrls0.avgWrBW                      190.57                       # Average achieved write bandwidth in MiByte/s
system.mem_ctrls0.avgRdBWSys                   457.14                       # Average system read bandwidth in MiByte/s
system.mem_ctrls0.avgWrBWSys                   190.57                       # Average system write bandwidth in MiByte/s
system.mem_ctrls0.peakBW                     12800.00                       # Theoretical peak bandwidth in MiByte/s
system.mem_ctrls0.busUtil                        5.06                       # Data bus utilization in percentage
system.mem_ctrls0.busUtilRead                    3.57                       # Data bus utilization in percentage for reads
system.mem_ctrls0.busUtilWrite                   1.49                       # Data bus utilization in percentage for writes
system.mem_ctrls0.avgRdQLen                      2.29                       # Average read queue length when enqueuing
system.mem_ctrls0.avgWrQLen                      3.10                       # Average write queue length when enqueuing
system.mem_ctrls0.readRowHits                  671034                       # Number of row buffer hits during reads
system.mem_ctrls0.writeRowHits                 191949                       # Number of row buffer hits during writes
system.mem_ctrls0.readRowHitRate                76.89                       # Row buffer hit rate for reads
system.mem_ctrls0.writeRowHitRate               52.75                       # Row buffer hit rate for writes
system.mem_ctrls0.avgGap                     98808.78                       # Average gap between requests
system.mem_ctrls0.pageHitRate                   69.79                       # Row buffer hit rate, read and write combined
system.mem_ctrls0.memoryStateTime::IDLE   20212430500                       # Time in different power states
system.mem_ctrls0.memoryStateTime::REF     4080440000                       # Time in different power states
system.mem_ctrls0.memoryStateTime::PRE_PDN            0                       # Time in different power states
system.mem_ctrls0.memoryStateTime::ACT    97905119000                       # Time in different power states
system.mem_ctrls0.memoryStateTime::ACT_PDN            0                       # Time in different power states
system.mem_ctrls0.actEnergy::0             1422897840                       # Energy for activate commands per rank (pJ)
system.mem_ctrls0.actEnergy::1             1401283800                       # Energy for activate commands per rank (pJ)
system.mem_ctrls0.preEnergy::0              776382750                       # Energy for precharge commands per rank (pJ)
system.mem_ctrls0.preEnergy::1              764589375                       # Energy for precharge commands per rank (pJ)
system.mem_ctrls0.readEnergy::0            3418841400                       # Energy for read commands per rank (pJ)
system.mem_ctrls0.readEnergy::1            3388015800                       # Energy for read commands per rank (pJ)
system.mem_ctrls0.writeEnergy::0           1186319520                       # Energy for write commands per rank (pJ)
system.mem_ctrls0.writeEnergy::1           1171545120                       # Energy for write commands per rank (pJ)
system.mem_ctrls0.refreshEnergy::0         7981340640                       # Energy for refresh commands per rank (pJ)
system.mem_ctrls0.refreshEnergy::1         7981340640                       # Energy for refresh commands per rank (pJ)
system.mem_ctrls0.actBackEnergy::0        51061755960                       # Energy for active background per rank (pJ)
system.mem_ctrls0.actBackEnergy::1        50580511515                       # Energy for active background per rank (pJ)
system.mem_ctrls0.preBackEnergy::0        28527586500                       # Energy for precharge background per rank (pJ)
system.mem_ctrls0.preBackEnergy::1        28949730750                       # Energy for precharge background per rank (pJ)
system.mem_ctrls0.totalEnergy::0          94375124610                       # Total energy per rank (pJ)
system.mem_ctrls0.totalEnergy::1          94237017000                       # Total energy per rank (pJ)
system.mem_ctrls0.averagePower::0          772.315270                       # Core power per rank (mW)
system.mem_ctrls0.averagePower::1          771.185072                       # Core power per rank (mW)
system.mem_ctrls1.bytes_read::ruby.dir_cntrl1     55273472                       # Number of bytes read from this memory
system.mem_ctrls1.bytes_read::total          55273472                       # Number of bytes read from this memory
system.mem_ctrls1.bytes_written::ruby.dir_cntrl1     22737216                       # Number of bytes written to this memory
system.mem_ctrls1.bytes_written::total       22737216                       # Number of bytes written to this memory
system.mem_ctrls1.num_reads::ruby.dir_cntrl1       863648                       # Number of read requests responded to by this memory
system.mem_ctrls1.num_reads::total             863648                       # Number of read requests responded to by this memory
system.mem_ctrls1.num_writes::ruby.dir_cntrl1       355269                       # Number of write requests responded to by this memory
system.mem_ctrls1.num_writes::total            355269                       # Number of write requests responded to by this memory
system.mem_ctrls1.bw_read::ruby.dir_cntrl1    452313211                       # Total read bandwidth from this memory (bytes/s)
system.mem_ctrls1.bw_read::total            452313211                       # Total read bandwidth from this memory (bytes/s)
system.mem_ctrls1.bw_write::ruby.dir_cntrl1    186062912                       # Write bandwidth from this memory (bytes/s)
system.mem_ctrls1.bw_write::total           186062912                       # Write bandwidth from this memory (bytes/s)
system.mem_ctrls1.bw_total::ruby.dir_cntrl1    638376123                       # Total bandwidth to/from this memory (bytes/s)
system.mem_ctrls1.bw_total::total           638376123                       # Total bandwidth to/from this memory (bytes/s)
system.mem_ctrls1.readReqs                     863648                       # Number of read requests accepted
system.mem_ctrls1.writeReqs                    355269                       # Number of write requests accepted
system.mem_ctrls1.readBursts                   863648                       # Number of DRAM read bursts, including those serviced by the write queue
system.mem_ctrls1.writeBursts                  355269                       # Number of DRAM write bursts, including those merged in the write queue
system.mem_ctrls1.bytesReadDRAM              55263552                       # Total number of bytes read from DRAM
system.mem_ctrls1.bytesReadWrQ                   9920                       # Total number of bytes read from write queue
system.mem_ctrls1.bytesWritten               22737088                       # Total number of bytes written to DRAM
system.mem_ctrls1.bytesReadSys               55273472                       # Total read bytes from the system interface side
system.mem_ctrls1.bytesWrittenSys            22737216                       # Total written bytes from the system interface side
system.mem_ctrls1.servicedByWrQ                   155                       # Number of DRAM read bursts serviced by the write queue
system.mem_ctrls1.mergedWrBursts                    0                       # Number of DRAM write bursts merged with an existing one
system.mem_ctrls1.neitherReadNorWriteReqs            0                       # Number of requests that are neither read nor write
system.mem_ctrls1.perBankRdBursts::0            55857                       # Per bank write bursts
system.mem_ctrls1.perBankRdBursts::1            54621                       # Per bank write bursts
system.mem_ctrls1.perBankRdBursts::2            53486                       # Per bank write bursts
system.mem_ctrls1.perBankRdBursts::3            53312                       # Per bank write bursts
system.mem_ctrls1.perBankRdBursts::4            52892                       # Per bank write bursts
system.mem_ctrls1.perBankRdBursts::5            53093                       # Per bank write bursts
system.mem_ctrls1.perBankRdBursts::6            55566                       # Per bank write bursts
system.mem_ctrls1.perBankRdBursts::7            55037                       # Per bank write bursts
system.mem_ctrls1.perBankRdBursts::8            54541                       # Per bank write bursts
system.mem_ctrls1.perBankRdBursts::9            53890                       # Per bank write bursts
system.mem_ctrls1.perBankRdBursts::10           52919                       # Per bank write bursts
system.mem_ctrls1.perBankRdBursts::11           53069                       # Per bank write bursts
system.mem_ctrls1.perBankRdBursts::12           52344                       # Per bank write bursts
system.mem_ctrls1.perBankRdBursts::13           53046                       # Per bank write bursts
system.mem_ctrls1.perBankRdBursts::14           54534                       # Per bank write bursts
system.mem_ctrls1.perBankRdBursts::15           55286                       # Per bank write bursts
system.mem_ctrls1.perBankWrBursts::0            22467                       # Per bank write bursts
system.mem_ctrls1.perBankWrBursts::1            22341                       # Per bank write bursts
system.mem_ctrls1.perBankWrBursts::2            22096                       # Per bank write bursts
system.mem_ctrls1.perBankWrBursts::3            22213                       # Per bank write bursts
system.mem_ctrls1.perBankWrBursts::4            22112                       # Per bank write bursts
system.mem_ctrls1.perBankWrBursts::5            22210                       # Per bank write bursts
system.mem_ctrls1.perBankWrBursts::6            22624                       # Per bank write bursts
system.mem_ctrls1.perBankWrBursts::7            22754                       # Per bank write bursts
system.mem_ctrls1.perBankWrBursts::8            22240                       # Per bank write bursts
system.mem_ctrls1.perBankWrBursts::9            22117                       # Per bank write bursts
system.mem_ctrls1.perBankWrBursts::10           21689                       # Per bank write bursts
system.mem_ctrls1.perBankWrBursts::11           21864                       # Per bank write bursts
system.mem_ctrls1.perBankWrBursts::12           21819                       # Per bank write bursts
system.mem_ctrls1.perBankWrBursts::13           21949                       # Per bank write bursts
system.mem_ctrls1.perBankWrBursts::14           22284                       # Per bank write bursts
system.mem_ctrls1.perBankWrBursts::15           22488                       # Per bank write bursts
system.mem_ctrls1.numRdRetry                   128986                       # Number of times read queue was full causing retry
system.mem_ctrls1.numWrRetry                    26731                       # Number of times write queue was full causing retry
system.mem_ctrls1.totGap                 122201011500                       # Total gap between requests
system.mem_ctrls1.readPktSize::0                    0                       # Read request sizes (log2)
system.mem_ctrls1.readPktSize::1                    0                       # Read request sizes (log2)
system.mem_ctrls1.readPktSize::2                    0                       # Read request sizes (log2)
system.mem_ctrls1.readPktSize::3                    0                       # Read request sizes (log2)
system.mem_ctrls1.readPktSize::4                    0                       # Read request sizes (log2)
system.mem_ctrls1.readPktSize::5                    0                       # Read request sizes (log2)
system.mem_ctrls1.readPktSize::6               863648                       # Read request sizes (log2)
system.mem_ctrls1.writePktSize::0                   0                       # Write request sizes (log2)
system.mem_ctrls1.writePktSize::1                   0                       # Write request sizes (log2)
system.mem_ctrls1.writePktSize::2                   0                       # Write request sizes (log2)
system.mem_ctrls1.writePktSize::3                   0                       # Write request sizes (log2)
system.mem_ctrls1.writePktSize::4                   0                       # Write request sizes (log2)
system.mem_ctrls1.writePktSize::5                   0                       # Write request sizes (log2)
system.mem_ctrls1.writePktSize::6              355269                       # Write request sizes (log2)
system.mem_ctrls1.rdQLenPdf::0                 176167                       # What read queue length does an incoming req see
system.mem_ctrls1.rdQLenPdf::1                  26369                       # What read queue length does an incoming req see
system.mem_ctrls1.rdQLenPdf::2                  26518                       # What read queue length does an incoming req see
system.mem_ctrls1.rdQLenPdf::3                  26879                       # What read queue length does an incoming req see
system.mem_ctrls1.rdQLenPdf::4                  27033                       # What read queue length does an incoming req see
system.mem_ctrls1.rdQLenPdf::5                  27222                       # What read queue length does an incoming req see
system.mem_ctrls1.rdQLenPdf::6                  27013                       # What read queue length does an incoming req see
system.mem_ctrls1.rdQLenPdf::7                  26907                       # What read queue length does an incoming req see
system.mem_ctrls1.rdQLenPdf::8                  26192                       # What read queue length does an incoming req see
system.mem_ctrls1.rdQLenPdf::9                  25390                       # What read queue length does an incoming req see
system.mem_ctrls1.rdQLenPdf::10                 24604                       # What read queue length does an incoming req see
system.mem_ctrls1.rdQLenPdf::11                 23949                       # What read queue length does an incoming req see
system.mem_ctrls1.rdQLenPdf::12                 22961                       # What read queue length does an incoming req see
system.mem_ctrls1.rdQLenPdf::13                 21812                       # What read queue length does an incoming req see
system.mem_ctrls1.rdQLenPdf::14                 20618                       # What read queue length does an incoming req see
system.mem_ctrls1.rdQLenPdf::15                 19267                       # What read queue length does an incoming req see
system.mem_ctrls1.rdQLenPdf::16                 18096                       # What read queue length does an incoming req see
system.mem_ctrls1.rdQLenPdf::17                 16824                       # What read queue length does an incoming req see
system.mem_ctrls1.rdQLenPdf::18                 15668                       # What read queue length does an incoming req see
system.mem_ctrls1.rdQLenPdf::19                 14629                       # What read queue length does an incoming req see
system.mem_ctrls1.rdQLenPdf::20                 13774                       # What read queue length does an incoming req see
system.mem_ctrls1.rdQLenPdf::21                 12874                       # What read queue length does an incoming req see
system.mem_ctrls1.rdQLenPdf::22                 12041                       # What read queue length does an incoming req see
system.mem_ctrls1.rdQLenPdf::23                 11193                       # What read queue length does an incoming req see
system.mem_ctrls1.rdQLenPdf::24                 10347                       # What read queue length does an incoming req see
system.mem_ctrls1.rdQLenPdf::25                  9644                       # What read queue length does an incoming req see
system.mem_ctrls1.rdQLenPdf::26                  9219                       # What read queue length does an incoming req see
system.mem_ctrls1.rdQLenPdf::27                  8549                       # What read queue length does an incoming req see
system.mem_ctrls1.rdQLenPdf::28                  8273                       # What read queue length does an incoming req see
system.mem_ctrls1.rdQLenPdf::29                  8056                       # What read queue length does an incoming req see
system.mem_ctrls1.rdQLenPdf::30                  7945                       # What read queue length does an incoming req see
system.mem_ctrls1.rdQLenPdf::31                137460                       # What read queue length does an incoming req see
system.mem_ctrls1.wrQLenPdf::0                  46220                       # What write queue length does an incoming req see
system.mem_ctrls1.wrQLenPdf::1                  50512                       # What write queue length does an incoming req see
system.mem_ctrls1.wrQLenPdf::2                  53472                       # What write queue length does an incoming req see
system.mem_ctrls1.wrQLenPdf::3                  55718                       # What write queue length does an incoming req see
system.mem_ctrls1.wrQLenPdf::4                  57425                       # What write queue length does an incoming req see
system.mem_ctrls1.wrQLenPdf::5                  23696                       # What write queue length does an incoming req see
system.mem_ctrls1.wrQLenPdf::6                  23976                       # What write queue length does an incoming req see
system.mem_ctrls1.wrQLenPdf::7                  44250                       # What write queue length does an incoming req see
system.mem_ctrls1.bytesPerActivate::samples       360088                       # Bytes accessed per row activation
system.mem_ctrls1.bytesPerActivate::mean   216.613006                       # Bytes accessed per row activation
system.mem_ctrls1.bytesPerActivate::gmean   159.851333                       # Bytes accessed per row activation
system.mem_ctrls1.bytesPerActivate::stdev   177.417620                       # Bytes accessed per row activation
system.mem_ctrls1.bytesPerActivate::0-127       118942     33.03%     33.03% # Bytes accessed per row activation
system.mem_ctrls1.bytesPerActivate::128-255       103578     28.76%     61.80% # Bytes accessed per row activation
system.mem_ctrls1.bytesPerActivate::256-383        79004     21.94%     83.74% # Bytes accessed per row activation
system.mem_ctrls1.bytesPerActivate::384-511        25160      6.99%     90.72% # Bytes accessed per row activation
system.mem_ctrls1.bytesPerActivate::512-639        19387      5.38%     96.11% # Bytes accessed per row activation
system.mem_ctrls1.bytesPerActivate::640-767         6192      1.72%     97.83% # Bytes accessed per row activation
system.mem_ctrls1.bytesPerActivate::768-895         4126      1.15%     98.97% # Bytes accessed per row activation
system.mem_ctrls1.bytesPerActivate::896-1023         2953      0.82%     99.79% # Bytes accessed per row activation
system.mem_ctrls1.bytesPerActivate::1024-1151          746      0.21%    100.00% # Bytes accessed per row activation
system.mem_ctrls1.bytesPerActivate::total       360088                       # Bytes accessed per row activation
system.mem_ctrls1.rdPerTurnAround::samples        49219                       # Reads before turning the bus around for writes
system.mem_ctrls1.rdPerTurnAround::mean     17.543814                       # Reads before turning the bus around for writes
system.mem_ctrls1.rdPerTurnAround::stdev    31.380270                       # Reads before turning the bus around for writes
system.mem_ctrls1.rdPerTurnAround::0-127        48800     99.15%     99.15% # Reads before turning the bus around for writes
system.mem_ctrls1.rdPerTurnAround::128-255          363      0.74%     99.89% # Reads before turning the bus around for writes
system.mem_ctrls1.rdPerTurnAround::256-383           34      0.07%     99.96% # Reads before turning the bus around for writes
system.mem_ctrls1.rdPerTurnAround::384-511           10      0.02%     99.98% # Reads before turning the bus around for writes
system.mem_ctrls1.rdPerTurnAround::512-639            4      0.01%     99.98% # Reads before turning the bus around for writes
system.mem_ctrls1.rdPerTurnAround::768-895            2      0.00%     99.99% # Reads before turning the bus around for writes
system.mem_ctrls1.rdPerTurnAround::896-1023            1      0.00%     99.99% # Reads before turning the bus around for writes
system.mem_ctrls1.rdPerTurnAround::1024-1151            3      0.01%    100.00% # Reads before turning the bus around for writes
system.mem_ctrls1.rdPerTurnAround::1152-1279            1      0.00%    100.00% # Reads before turning the bus around for writes
system.mem_ctrls1.rdPerTurnAround::2816-2943            1      0.00%    100.00% # Reads before turning the bus around for writes
system.mem_ctrls1.rdPerTurnAround::total        49219                       # Reads before turning the bus around for writes
system.mem_ctrls1.wrPerTurnAround::samples        49219                       # Writes before turning the bus around for reads
system.mem_ctrls1.wrPerTurnAround::mean      7.218087                       # Writes before turning the bus around for reads
system.mem_ctrls1.wrPerTurnAround::gmean     6.561108                       # Writes before turning the bus around for reads
system.mem_ctrls1.wrPerTurnAround::stdev     3.594283                       # Writes before turning the bus around for reads
system.mem_ctrls1.wrPerTurnAround::4-7          34899     70.91%     70.91% # Writes before turning the bus around for reads
system.mem_ctrls1.wrPerTurnAround::8-11          6499     13.20%     84.11% # Writes before turning the bus around for reads
system.mem_ctrls1.wrPerTurnAround::12-15         4159      8.45%     92.56% # Writes before turning the bus around for reads
system.mem_ctrls1.wrPerTurnAround::16-19         3662      7.44%    100.00% # Writes before turning the bus around for reads
system.mem_ctrls1.wrPerTurnAround::total        49219                       # Writes before turning the bus around for reads
system.mem_ctrls1.totQLat                112323650500                       # Total ticks spent queuing
system.mem_ctrls1.totMemAccLat           128514144250                       # Total ticks spent from burst creation until serviced by the DRAM
system.mem_ctrls1.totBusLat                4317465000                       # Total ticks spent in databus transfers
system.mem_ctrls1.avgQLat                   130080.56                       # Average queueing delay per DRAM burst
system.mem_ctrls1.avgBusLat                   5000.00                       # Average bus latency per DRAM burst
system.mem_ctrls1.avgMemAccLat              148830.56                       # Average memory access latency per DRAM burst
system.mem_ctrls1.avgRdBW                      452.23                       # Average DRAM read bandwidth in MiByte/s
system.mem_ctrls1.avgWrBW                      186.06                       # Average achieved write bandwidth in MiByte/s
system.mem_ctrls1.avgRdBWSys                   452.31                       # Average system read bandwidth in MiByte/s
system.mem_ctrls1.avgWrBWSys                   186.06                       # Average system write bandwidth in MiByte/s
system.mem_ctrls1.peakBW                     12800.00                       # Theoretical peak bandwidth in MiByte/s
system.mem_ctrls1.busUtil                        4.99                       # Data bus utilization in percentage
system.mem_ctrls1.busUtilRead                    3.53                       # Data bus utilization in percentage for reads
system.mem_ctrls1.busUtilWrite                   1.45                       # Data bus utilization in percentage for writes
system.mem_ctrls1.avgRdQLen                      2.28                       # Average read queue length when enqueuing
system.mem_ctrls1.avgWrQLen                      3.09                       # Average write queue length when enqueuing
system.mem_ctrls1.readRowHits                  667318                       # Number of row buffer hits during reads
system.mem_ctrls1.writeRowHits                 191346                       # Number of row buffer hits during writes
system.mem_ctrls1.readRowHitRate                77.28                       # Row buffer hit rate for reads
system.mem_ctrls1.writeRowHitRate               53.86                       # Row buffer hit rate for writes
system.mem_ctrls1.avgGap                    100253.76                       # Average gap between requests
system.mem_ctrls1.pageHitRate                   70.45                       # Row buffer hit rate, read and write combined
system.mem_ctrls1.memoryStateTime::IDLE   20700487250                       # Time in different power states
system.mem_ctrls1.memoryStateTime::REF     4080440000                       # Time in different power states
system.mem_ctrls1.memoryStateTime::PRE_PDN            0                       # Time in different power states
system.mem_ctrls1.memoryStateTime::ACT    97417289750                       # Time in different power states
system.mem_ctrls1.memoryStateTime::ACT_PDN            0                       # Time in different power states
system.mem_ctrls1.actEnergy::0             1374967440                       # Energy for activate commands per rank (pJ)
system.mem_ctrls1.actEnergy::1             1347260040                       # Energy for activate commands per rank (pJ)
system.mem_ctrls1.preEnergy::0              750230250                       # Energy for precharge commands per rank (pJ)
system.mem_ctrls1.preEnergy::1              735112125                       # Energy for precharge commands per rank (pJ)
system.mem_ctrls1.readEnergy::0            3384084600                       # Energy for read commands per rank (pJ)
system.mem_ctrls1.readEnergy::1            3350989200                       # Energy for read commands per rank (pJ)
system.mem_ctrls1.writeEnergy::0           1158727680                       # Energy for write commands per rank (pJ)
system.mem_ctrls1.writeEnergy::1           1143370080                       # Energy for write commands per rank (pJ)
system.mem_ctrls1.refreshEnergy::0         7981340640                       # Energy for refresh commands per rank (pJ)
system.mem_ctrls1.refreshEnergy::1         7981340640                       # Energy for refresh commands per rank (pJ)
system.mem_ctrls1.actBackEnergy::0        49850998155                       # Energy for active background per rank (pJ)
system.mem_ctrls1.actBackEnergy::1        49617878985                       # Energy for active background per rank (pJ)
system.mem_ctrls1.preBackEnergy::0        29589678000                       # Energy for precharge background per rank (pJ)
system.mem_ctrls1.preBackEnergy::1        29794168500                       # Energy for precharge background per rank (pJ)
system.mem_ctrls1.totalEnergy::0          94090026765                       # Total energy per rank (pJ)
system.mem_ctrls1.totalEnergy::1          93970119570                       # Total energy per rank (pJ)
system.mem_ctrls1.averagePower::0          769.981939                       # Core power per rank (mW)
system.mem_ctrls1.averagePower::1          769.000683                       # Core power per rank (mW)
system.mem_ctrls2.bytes_read::ruby.dir_cntrl2     55228480                       # Number of bytes read from this memory
system.mem_ctrls2.bytes_read::total          55228480                       # Number of bytes read from this memory
system.mem_ctrls2.bytes_written::ruby.dir_cntrl2     22725504                       # Number of bytes written to this memory
system.mem_ctrls2.bytes_written::total       22725504                       # Number of bytes written to this memory
system.mem_ctrls2.num_reads::ruby.dir_cntrl2       862945                       # Number of read requests responded to by this memory
system.mem_ctrls2.num_reads::total             862945                       # Number of read requests responded to by this memory
system.mem_ctrls2.num_writes::ruby.dir_cntrl2       355086                       # Number of write requests responded to by this memory
system.mem_ctrls2.num_writes::total            355086                       # Number of write requests responded to by this memory
system.mem_ctrls2.bw_read::ruby.dir_cntrl2    451945033                       # Total read bandwidth from this memory (bytes/s)
system.mem_ctrls2.bw_read::total            451945033                       # Total read bandwidth from this memory (bytes/s)
system.mem_ctrls2.bw_write::ruby.dir_cntrl2    185967071                       # Write bandwidth from this memory (bytes/s)
system.mem_ctrls2.bw_write::total           185967071                       # Write bandwidth from this memory (bytes/s)
system.mem_ctrls2.bw_total::ruby.dir_cntrl2    637912103                       # Total bandwidth to/from this memory (bytes/s)
system.mem_ctrls2.bw_total::total           637912103                       # Total bandwidth to/from this memory (bytes/s)
system.mem_ctrls2.readReqs                     862945                       # Number of read requests accepted
system.mem_ctrls2.writeReqs                    355086                       # Number of write requests accepted
system.mem_ctrls2.readBursts                   862945                       # Number of DRAM read bursts, including those serviced by the write queue
system.mem_ctrls2.writeBursts                  355086                       # Number of DRAM write bursts, including those merged in the write queue
system.mem_ctrls2.bytesReadDRAM              55221952                       # Total number of bytes read from DRAM
system.mem_ctrls2.bytesReadWrQ                   6528                       # Total number of bytes read from write queue
system.mem_ctrls2.bytesWritten               22725376                       # Total number of bytes written to DRAM
system.mem_ctrls2.bytesReadSys               55228480                       # Total read bytes from the system interface side
system.mem_ctrls2.bytesWrittenSys            22725504                       # Total written bytes from the system interface side
system.mem_ctrls2.servicedByWrQ                   102                       # Number of DRAM read bursts serviced by the write queue
system.mem_ctrls2.mergedWrBursts                    0                       # Number of DRAM write bursts merged with an existing one
system.mem_ctrls2.neitherReadNorWriteReqs            0                       # Number of requests that are neither read nor write
system.mem_ctrls2.perBankRdBursts::0            56018                       # Per bank write bursts
system.mem_ctrls2.perBankRdBursts::1            54686                       # Per bank write bursts
system.mem_ctrls2.perBankRdBursts::2            53336                       # Per bank write bursts
system.mem_ctrls2.perBankRdBursts::3            53192                       # Per bank write bursts
system.mem_ctrls2.perBankRdBursts::4            53019                       # Per bank write bursts
system.mem_ctrls2.perBankRdBursts::5            52920                       # Per bank write bursts
system.mem_ctrls2.perBankRdBursts::6            55280                       # Per bank write bursts
system.mem_ctrls2.perBankRdBursts::7            55011                       # Per bank write bursts
system.mem_ctrls2.perBankRdBursts::8            54686                       # Per bank write bursts
system.mem_ctrls2.perBankRdBursts::9            53900                       # Per bank write bursts
system.mem_ctrls2.perBankRdBursts::10           52844                       # Per bank write bursts
system.mem_ctrls2.perBankRdBursts::11           52981                       # Per bank write bursts
system.mem_ctrls2.perBankRdBursts::12           52576                       # Per bank write bursts
system.mem_ctrls2.perBankRdBursts::13           52632                       # Per bank write bursts
system.mem_ctrls2.perBankRdBursts::14           54369                       # Per bank write bursts
system.mem_ctrls2.perBankRdBursts::15           55393                       # Per bank write bursts
system.mem_ctrls2.perBankWrBursts::0            22533                       # Per bank write bursts
system.mem_ctrls2.perBankWrBursts::1            22260                       # Per bank write bursts
system.mem_ctrls2.perBankWrBursts::2            22213                       # Per bank write bursts
system.mem_ctrls2.perBankWrBursts::3            22049                       # Per bank write bursts
system.mem_ctrls2.perBankWrBursts::4            22253                       # Per bank write bursts
system.mem_ctrls2.perBankWrBursts::5            22030                       # Per bank write bursts
system.mem_ctrls2.perBankWrBursts::6            22612                       # Per bank write bursts
system.mem_ctrls2.perBankWrBursts::7            22678                       # Per bank write bursts
system.mem_ctrls2.perBankWrBursts::8            22363                       # Per bank write bursts
system.mem_ctrls2.perBankWrBursts::9            22017                       # Per bank write bursts
system.mem_ctrls2.perBankWrBursts::10           21792                       # Per bank write bursts
system.mem_ctrls2.perBankWrBursts::11           21724                       # Per bank write bursts
system.mem_ctrls2.perBankWrBursts::12           21947                       # Per bank write bursts
system.mem_ctrls2.perBankWrBursts::13           21756                       # Per bank write bursts
system.mem_ctrls2.perBankWrBursts::14           22381                       # Per bank write bursts
system.mem_ctrls2.perBankWrBursts::15           22476                       # Per bank write bursts
system.mem_ctrls2.numRdRetry                   126299                       # Number of times read queue was full causing retry
system.mem_ctrls2.numWrRetry                    27759                       # Number of times write queue was full causing retry
system.mem_ctrls2.totGap                 122201719500                       # Total gap between requests
system.mem_ctrls2.readPktSize::0                    0                       # Read request sizes (log2)
system.mem_ctrls2.readPktSize::1                    0                       # Read request sizes (log2)
system.mem_ctrls2.readPktSize::2                    0                       # Read request sizes (log2)
system.mem_ctrls2.readPktSize::3                    0                       # Read request sizes (log2)
system.mem_ctrls2.readPktSize::4                    0                       # Read request sizes (log2)
system.mem_ctrls2.readPktSize::5                    0                       # Read request sizes (log2)
system.mem_ctrls2.readPktSize::6               862945                       # Read request sizes (log2)
system.mem_ctrls2.writePktSize::0                   0                       # Write request sizes (log2)
system.mem_ctrls2.writePktSize::1                   0                       # Write request sizes (log2)
system.mem_ctrls2.writePktSize::2                   0                       # Write request sizes (log2)
system.mem_ctrls2.writePktSize::3                   0                       # Write request sizes (log2)
system.mem_ctrls2.writePktSize::4                   0                       # Write request sizes (log2)
system.mem_ctrls2.writePktSize::5                   0                       # Write request sizes (log2)
system.mem_ctrls2.writePktSize::6              355086                       # Write request sizes (log2)
system.mem_ctrls2.rdQLenPdf::0                 176314                       # What read queue length does an incoming req see
system.mem_ctrls2.rdQLenPdf::1                  26030                       # What read queue length does an incoming req see
system.mem_ctrls2.rdQLenPdf::2                  26301                       # What read queue length does an incoming req see
system.mem_ctrls2.rdQLenPdf::3                  26920                       # What read queue length does an incoming req see
system.mem_ctrls2.rdQLenPdf::4                  27105                       # What read queue length does an incoming req see
system.mem_ctrls2.rdQLenPdf::5                  27403                       # What read queue length does an incoming req see
system.mem_ctrls2.rdQLenPdf::6                  27286                       # What read queue length does an incoming req see
system.mem_ctrls2.rdQLenPdf::7                  27130                       # What read queue length does an incoming req see
system.mem_ctrls2.rdQLenPdf::8                  26492                       # What read queue length does an incoming req see
system.mem_ctrls2.rdQLenPdf::9                  25567                       # What read queue length does an incoming req see
system.mem_ctrls2.rdQLenPdf::10                 24736                       # What read queue length does an incoming req see
system.mem_ctrls2.rdQLenPdf::11                 24045                       # What read queue length does an incoming req see
system.mem_ctrls2.rdQLenPdf::12                 22756                       # What read queue length does an incoming req see
system.mem_ctrls2.rdQLenPdf::13                 21727                       # What read queue length does an incoming req see
system.mem_ctrls2.rdQLenPdf::14                 20603                       # What read queue length does an incoming req see
system.mem_ctrls2.rdQLenPdf::15                 19509                       # What read queue length does an incoming req see
system.mem_ctrls2.rdQLenPdf::16                 17946                       # What read queue length does an incoming req see
system.mem_ctrls2.rdQLenPdf::17                 17076                       # What read queue length does an incoming req see
system.mem_ctrls2.rdQLenPdf::18                 15782                       # What read queue length does an incoming req see
system.mem_ctrls2.rdQLenPdf::19                 14701                       # What read queue length does an incoming req see
system.mem_ctrls2.rdQLenPdf::20                 13708                       # What read queue length does an incoming req see
system.mem_ctrls2.rdQLenPdf::21                 12818                       # What read queue length does an incoming req see
system.mem_ctrls2.rdQLenPdf::22                 12067                       # What read queue length does an incoming req see
system.mem_ctrls2.rdQLenPdf::23                 11326                       # What read queue length does an incoming req see
system.mem_ctrls2.rdQLenPdf::24                 10719                       # What read queue length does an incoming req see
system.mem_ctrls2.rdQLenPdf::25                  9847                       # What read queue length does an incoming req see
system.mem_ctrls2.rdQLenPdf::26                  9240                       # What read queue length does an incoming req see
system.mem_ctrls2.rdQLenPdf::27                  8790                       # What read queue length does an incoming req see
system.mem_ctrls2.rdQLenPdf::28                  8298                       # What read queue length does an incoming req see
system.mem_ctrls2.rdQLenPdf::29                  8091                       # What read queue length does an incoming req see
system.mem_ctrls2.rdQLenPdf::30                  7875                       # What read queue length does an incoming req see
system.mem_ctrls2.rdQLenPdf::31                134635                       # What read queue length does an incoming req see
system.mem_ctrls2.wrQLenPdf::0                  46271                       # What write queue length does an incoming req see
system.mem_ctrls2.wrQLenPdf::1                  50492                       # What write queue length does an incoming req see
system.mem_ctrls2.wrQLenPdf::2                  53451                       # What write queue length does an incoming req see
system.mem_ctrls2.wrQLenPdf::3                  55641                       # What write queue length does an incoming req see
system.mem_ctrls2.wrQLenPdf::4                  57293                       # What write queue length does an incoming req see
system.mem_ctrls2.wrQLenPdf::5                  23344                       # What write queue length does an incoming req see
system.mem_ctrls2.wrQLenPdf::6                  23578                       # What write queue length does an incoming req see
system.mem_ctrls2.wrQLenPdf::7                  45016                       # What write queue length does an incoming req see
system.mem_ctrls2.bytesPerActivate::samples       358425                       # Bytes accessed per row activation
system.mem_ctrls2.bytesPerActivate::mean   217.470723                       # Bytes accessed per row activation
system.mem_ctrls2.bytesPerActivate::gmean   160.684159                       # Bytes accessed per row activation
system.mem_ctrls2.bytesPerActivate::stdev   177.642300                       # Bytes accessed per row activation
system.mem_ctrls2.bytesPerActivate::0-127       116999     32.64%     32.64% # Bytes accessed per row activation
system.mem_ctrls2.bytesPerActivate::128-255       103531     28.88%     61.53% # Bytes accessed per row activation
system.mem_ctrls2.bytesPerActivate::256-383        79527     22.19%     83.72% # Bytes accessed per row activation
system.mem_ctrls2.bytesPerActivate::384-511        24765      6.91%     90.62% # Bytes accessed per row activation
system.mem_ctrls2.bytesPerActivate::512-639        19473      5.43%     96.06% # Bytes accessed per row activation
system.mem_ctrls2.bytesPerActivate::640-767         6295      1.76%     97.81% # Bytes accessed per row activation
system.mem_ctrls2.bytesPerActivate::768-895         4065      1.13%     98.95% # Bytes accessed per row activation
system.mem_ctrls2.bytesPerActivate::896-1023         2994      0.84%     99.78% # Bytes accessed per row activation
system.mem_ctrls2.bytesPerActivate::1024-1151          776      0.22%    100.00% # Bytes accessed per row activation
system.mem_ctrls2.bytesPerActivate::total       358425                       # Bytes accessed per row activation
system.mem_ctrls2.rdPerTurnAround::samples        49249                       # Reads before turning the bus around for writes
system.mem_ctrls2.rdPerTurnAround::mean     17.519929                       # Reads before turning the bus around for writes
system.mem_ctrls2.rdPerTurnAround::stdev    31.597391                       # Reads before turning the bus around for writes
system.mem_ctrls2.rdPerTurnAround::0-127        48830     99.15%     99.15% # Reads before turning the bus around for writes
system.mem_ctrls2.rdPerTurnAround::128-255          365      0.74%     99.89% # Reads before turning the bus around for writes
system.mem_ctrls2.rdPerTurnAround::256-383           35      0.07%     99.96% # Reads before turning the bus around for writes
system.mem_ctrls2.rdPerTurnAround::384-511            5      0.01%     99.97% # Reads before turning the bus around for writes
system.mem_ctrls2.rdPerTurnAround::512-639            3      0.01%     99.98% # Reads before turning the bus around for writes
system.mem_ctrls2.rdPerTurnAround::640-767            2      0.00%     99.98% # Reads before turning the bus around for writes
system.mem_ctrls2.rdPerTurnAround::768-895            3      0.01%     99.99% # Reads before turning the bus around for writes
system.mem_ctrls2.rdPerTurnAround::896-1023            2      0.00%     99.99% # Reads before turning the bus around for writes
system.mem_ctrls2.rdPerTurnAround::1024-1151            1      0.00%     99.99% # Reads before turning the bus around for writes
system.mem_ctrls2.rdPerTurnAround::1152-1279            2      0.00%    100.00% # Reads before turning the bus around for writes
system.mem_ctrls2.rdPerTurnAround::2816-2943            1      0.00%    100.00% # Reads before turning the bus around for writes
system.mem_ctrls2.rdPerTurnAround::total        49249                       # Reads before turning the bus around for writes
system.mem_ctrls2.wrPerTurnAround::samples        49249                       # Writes before turning the bus around for reads
system.mem_ctrls2.wrPerTurnAround::mean      7.209974                       # Writes before turning the bus around for reads
system.mem_ctrls2.wrPerTurnAround::gmean     6.556639                       # Writes before turning the bus around for reads
system.mem_ctrls2.wrPerTurnAround::stdev     3.586255                       # Writes before turning the bus around for reads
system.mem_ctrls2.wrPerTurnAround::4-7          34976     71.02%     71.02% # Writes before turning the bus around for reads
system.mem_ctrls2.wrPerTurnAround::8-11          6502     13.20%     84.22% # Writes before turning the bus around for reads
system.mem_ctrls2.wrPerTurnAround::12-15         4084      8.29%     92.51% # Writes before turning the bus around for reads
system.mem_ctrls2.wrPerTurnAround::16-19         3687      7.49%    100.00% # Writes before turning the bus around for reads
system.mem_ctrls2.wrPerTurnAround::total        49249                       # Writes before turning the bus around for reads
system.mem_ctrls2.totQLat                111771256103                       # Total ticks spent queuing
system.mem_ctrls2.totMemAccLat           127949562353                       # Total ticks spent from burst creation until serviced by the DRAM
system.mem_ctrls2.totBusLat                4314215000                       # Total ticks spent in databus transfers
system.mem_ctrls2.avgQLat                   129538.35                       # Average queueing delay per DRAM burst
system.mem_ctrls2.avgBusLat                   5000.00                       # Average bus latency per DRAM burst
system.mem_ctrls2.avgMemAccLat              148288.35                       # Average memory access latency per DRAM burst
system.mem_ctrls2.avgRdBW                      451.89                       # Average DRAM read bandwidth in MiByte/s
system.mem_ctrls2.avgWrBW                      185.97                       # Average achieved write bandwidth in MiByte/s
system.mem_ctrls2.avgRdBWSys                   451.95                       # Average system read bandwidth in MiByte/s
system.mem_ctrls2.avgWrBWSys                   185.97                       # Average system write bandwidth in MiByte/s
system.mem_ctrls2.peakBW                     12800.00                       # Theoretical peak bandwidth in MiByte/s
system.mem_ctrls2.busUtil                        4.98                       # Data bus utilization in percentage
system.mem_ctrls2.busUtilRead                    3.53                       # Data bus utilization in percentage for reads
system.mem_ctrls2.busUtilWrite                   1.45                       # Data bus utilization in percentage for writes
system.mem_ctrls2.avgRdQLen                      2.28                       # Average read queue length when enqueuing
system.mem_ctrls2.avgWrQLen                      3.09                       # Average write queue length when enqueuing
system.mem_ctrls2.readRowHits                  667568                       # Number of row buffer hits during reads
system.mem_ctrls2.writeRowHits                 191930                       # Number of row buffer hits during writes
system.mem_ctrls2.readRowHitRate                77.37                       # Row buffer hit rate for reads
system.mem_ctrls2.writeRowHitRate               54.05                       # Row buffer hit rate for writes
system.mem_ctrls2.avgGap                    100327.27                       # Average gap between requests
system.mem_ctrls2.pageHitRate                   70.57                       # Row buffer hit rate, read and write combined
system.mem_ctrls2.memoryStateTime::IDLE   20831726500                       # Time in different power states
system.mem_ctrls2.memoryStateTime::REF     4080440000                       # Time in different power states
system.mem_ctrls2.memoryStateTime::PRE_PDN            0                       # Time in different power states
system.mem_ctrls2.memoryStateTime::ACT    97285627000                       # Time in different power states
system.mem_ctrls2.memoryStateTime::ACT_PDN            0                       # Time in different power states
system.mem_ctrls2.actEnergy::0             1365729120                       # Energy for activate commands per rank (pJ)
system.mem_ctrls2.actEnergy::1             1343895840                       # Energy for activate commands per rank (pJ)
system.mem_ctrls2.preEnergy::0              745189500                       # Energy for precharge commands per rank (pJ)
system.mem_ctrls2.preEnergy::1              733276500                       # Energy for precharge commands per rank (pJ)
system.mem_ctrls2.readEnergy::0            3380972400                       # Energy for read commands per rank (pJ)
system.mem_ctrls2.readEnergy::1            3349086000                       # Energy for read commands per rank (pJ)
system.mem_ctrls2.writeEnergy::0           1157483520                       # Energy for write commands per rank (pJ)
system.mem_ctrls2.writeEnergy::1           1143428400                       # Energy for write commands per rank (pJ)
system.mem_ctrls2.refreshEnergy::0         7981340640                       # Energy for refresh commands per rank (pJ)
system.mem_ctrls2.refreshEnergy::1         7981340640                       # Energy for refresh commands per rank (pJ)
system.mem_ctrls2.actBackEnergy::0        50089061790                       # Energy for active background per rank (pJ)
system.mem_ctrls2.actBackEnergy::1        49577723055                       # Energy for active background per rank (pJ)
system.mem_ctrls2.preBackEnergy::0        29380852500                       # Energy for precharge background per rank (pJ)
system.mem_ctrls2.preBackEnergy::1        29829395250                       # Energy for precharge background per rank (pJ)
system.mem_ctrls2.totalEnergy::0          94100629470                       # Total energy per rank (pJ)
system.mem_ctrls2.totalEnergy::1          93958145685                       # Total energy per rank (pJ)
system.mem_ctrls2.averagePower::0          770.068682                       # Core power per rank (mW)
system.mem_ctrls2.averagePower::1          768.902672                       # Core power per rank (mW)
system.mem_ctrls3.bytes_read::ruby.dir_cntrl3     55233216                       # Number of bytes read from this memory
system.mem_ctrls3.bytes_read::total          55233216                       # Number of bytes read from this memory
system.mem_ctrls3.bytes_written::ruby.dir_cntrl3     22711616                       # Number of bytes written to this memory
system.mem_ctrls3.bytes_written::total       22711616                       # Number of bytes written to this memory
system.mem_ctrls3.num_reads::ruby.dir_cntrl3       863019                       # Number of read requests responded to by this memory
system.mem_ctrls3.num_reads::total             863019                       # Number of read requests responded to by this memory
system.mem_ctrls3.num_writes::ruby.dir_cntrl3       354869                       # Number of write requests responded to by this memory
system.mem_ctrls3.num_writes::total            354869                       # Number of write requests responded to by this memory
system.mem_ctrls3.bw_read::ruby.dir_cntrl3    451983788                       # Total read bandwidth from this memory (bytes/s)
system.mem_ctrls3.bw_read::total            451983788                       # Total read bandwidth from this memory (bytes/s)
system.mem_ctrls3.bw_write::ruby.dir_cntrl3    185853423                       # Write bandwidth from this memory (bytes/s)
system.mem_ctrls3.bw_write::total           185853423                       # Write bandwidth from this memory (bytes/s)
system.mem_ctrls3.bw_total::ruby.dir_cntrl3    637837211                       # Total bandwidth to/from this memory (bytes/s)
system.mem_ctrls3.bw_total::total           637837211                       # Total bandwidth to/from this memory (bytes/s)
system.mem_ctrls3.readReqs                     863020                       # Number of read requests accepted
system.mem_ctrls3.writeReqs                    354869                       # Number of write requests accepted
system.mem_ctrls3.readBursts                   863020                       # Number of DRAM read bursts, including those serviced by the write queue
system.mem_ctrls3.writeBursts                  354869                       # Number of DRAM write bursts, including those merged in the write queue
system.mem_ctrls3.bytesReadDRAM              55227072                       # Total number of bytes read from DRAM
system.mem_ctrls3.bytesReadWrQ                   6208                       # Total number of bytes read from write queue
system.mem_ctrls3.bytesWritten               22711360                       # Total number of bytes written to DRAM
system.mem_ctrls3.bytesReadSys               55233280                       # Total read bytes from the system interface side
system.mem_ctrls3.bytesWrittenSys            22711616                       # Total written bytes from the system interface side
system.mem_ctrls3.servicedByWrQ                    97                       # Number of DRAM read bursts serviced by the write queue
system.mem_ctrls3.mergedWrBursts                    0                       # Number of DRAM write bursts merged with an existing one
system.mem_ctrls3.neitherReadNorWriteReqs            0                       # Number of requests that are neither read nor write
system.mem_ctrls3.perBankRdBursts::0            55842                       # Per bank write bursts
system.mem_ctrls3.perBankRdBursts::1            54758                       # Per bank write bursts
system.mem_ctrls3.perBankRdBursts::2            53459                       # Per bank write bursts
system.mem_ctrls3.perBankRdBursts::3            53136                       # Per bank write bursts
system.mem_ctrls3.perBankRdBursts::4            52855                       # Per bank write bursts
system.mem_ctrls3.perBankRdBursts::5            53041                       # Per bank write bursts
system.mem_ctrls3.perBankRdBursts::6            55298                       # Per bank write bursts
system.mem_ctrls3.perBankRdBursts::7            54961                       # Per bank write bursts
system.mem_ctrls3.perBankRdBursts::8            54666                       # Per bank write bursts
system.mem_ctrls3.perBankRdBursts::9            54000                       # Per bank write bursts
system.mem_ctrls3.perBankRdBursts::10           53037                       # Per bank write bursts
system.mem_ctrls3.perBankRdBursts::11           52823                       # Per bank write bursts
system.mem_ctrls3.perBankRdBursts::12           52493                       # Per bank write bursts
system.mem_ctrls3.perBankRdBursts::13           52878                       # Per bank write bursts
system.mem_ctrls3.perBankRdBursts::14           54343                       # Per bank write bursts
system.mem_ctrls3.perBankRdBursts::15           55333                       # Per bank write bursts
system.mem_ctrls3.perBankWrBursts::0            22443                       # Per bank write bursts
system.mem_ctrls3.perBankWrBursts::1            22318                       # Per bank write bursts
system.mem_ctrls3.perBankWrBursts::2            22255                       # Per bank write bursts
system.mem_ctrls3.perBankWrBursts::3            22058                       # Per bank write bursts
system.mem_ctrls3.perBankWrBursts::4            22124                       # Per bank write bursts
system.mem_ctrls3.perBankWrBursts::5            22052                       # Per bank write bursts
system.mem_ctrls3.perBankWrBursts::6            22511                       # Per bank write bursts
system.mem_ctrls3.perBankWrBursts::7            22741                       # Per bank write bursts
system.mem_ctrls3.perBankWrBursts::8            22263                       # Per bank write bursts
system.mem_ctrls3.perBankWrBursts::9            22095                       # Per bank write bursts
system.mem_ctrls3.perBankWrBursts::10           21817                       # Per bank write bursts
system.mem_ctrls3.perBankWrBursts::11           21761                       # Per bank write bursts
system.mem_ctrls3.perBankWrBursts::12           21883                       # Per bank write bursts
system.mem_ctrls3.perBankWrBursts::13           21812                       # Per bank write bursts
system.mem_ctrls3.perBankWrBursts::14           22253                       # Per bank write bursts
system.mem_ctrls3.perBankWrBursts::15           22479                       # Per bank write bursts
system.mem_ctrls3.numRdRetry                   125299                       # Number of times read queue was full causing retry
system.mem_ctrls3.numWrRetry                    26539                       # Number of times write queue was full causing retry
system.mem_ctrls3.totGap                 122201016500                       # Total gap between requests
system.mem_ctrls3.readPktSize::0                    0                       # Read request sizes (log2)
system.mem_ctrls3.readPktSize::1                    0                       # Read request sizes (log2)
system.mem_ctrls3.readPktSize::2                    0                       # Read request sizes (log2)
system.mem_ctrls3.readPktSize::3                    0                       # Read request sizes (log2)
system.mem_ctrls3.readPktSize::4                    0                       # Read request sizes (log2)
system.mem_ctrls3.readPktSize::5                    0                       # Read request sizes (log2)
system.mem_ctrls3.readPktSize::6               863020                       # Read request sizes (log2)
system.mem_ctrls3.writePktSize::0                   0                       # Write request sizes (log2)
system.mem_ctrls3.writePktSize::1                   0                       # Write request sizes (log2)
system.mem_ctrls3.writePktSize::2                   0                       # Write request sizes (log2)
system.mem_ctrls3.writePktSize::3                   0                       # Write request sizes (log2)
system.mem_ctrls3.writePktSize::4                   0                       # Write request sizes (log2)
system.mem_ctrls3.writePktSize::5                   0                       # Write request sizes (log2)
system.mem_ctrls3.writePktSize::6              354869                       # Write request sizes (log2)
system.mem_ctrls3.rdQLenPdf::0                 176061                       # What read queue length does an incoming req see
system.mem_ctrls3.rdQLenPdf::1                  26246                       # What read queue length does an incoming req see
system.mem_ctrls3.rdQLenPdf::2                  26403                       # What read queue length does an incoming req see
system.mem_ctrls3.rdQLenPdf::3                  26921                       # What read queue length does an incoming req see
system.mem_ctrls3.rdQLenPdf::4                  27306                       # What read queue length does an incoming req see
[...]
system.ruby.L2Cache_Controller.MT_MB.L1_PUTX_old::total            2                      
system.ruby.L2Cache_Controller.MT_MB.Exclusive_Unblock |      214847      5.27%      5.27% |      124731      3.06%      8.33% |      123582      3.03%     11.37% |      125735      3.09%     14.45% |      123817      3.04%     17.49% |      122895      3.02%     20.51% |      122854      3.02%     23.53% |      122016      2.99%     26.52% |      122293      3.00%     29.52% |      122744      3.01%     32.53% |      125085      3.07%     35.60% |      123894      3.04%     38.65% |      122790      3.01%     41.66% |      123218      3.02%     44.68% |      122039      3.00%     47.68% |      121968      2.99%     50.67% |      122911      3.02%     53.69% |      122652      3.01%     56.70% |      123057      3.02%     59.72% |      123256      3.03%     62.75% |      123726      3.04%     65.78% |      138405      3.40%     69.18% |      131856      3.24%     72.42% |      122639      3.01%     75.43% |      123219      3.02%     78.45% |      123572      3.03%     81.48% |      123084      3.02%     84.50% |      122874      3.02%     87.52% |      124382      3.05%     90.57% |      123345      3.03%     93.60% |      126796      3.11%     96.71% |      133912      3.29%    100.00%
system.ruby.L2Cache_Controller.MT_MB.Exclusive_Unblock::total      4074194                      
system.ruby.L2Cache_Controller.MT_IIB.L1_GETS |           6      2.54%      2.54% |           6      2.54%      5.08% |           3      1.27%      6.36% |           2      0.85%      7.20% |          12      5.08%     12.29% |           3      1.27%     13.56% |           6      2.54%     16.10% |          12      5.08%     21.19% |          11      4.66%     25.85% |           7      2.97%     28.81% |           5      2.12%     30.93% |           1      0.42%     31.36% |           6      2.54%     33.90% |           3      1.27%     35.17% |           6      2.54%     37.71% |          13      5.51%     43.22% |           6      2.54%     45.76% |           7      2.97%     48.73% |           7      2.97%     51.69% |           5      2.12%     53.81% |          13      5.51%     59.32% |           4      1.69%     61.02% |           9      3.81%     64.83% |           7      2.97%     67.80% |          15      6.36%     74.15% |           6      2.54%     76.69% |          14      5.93%     82.63% |           4      1.69%     84.32% |          15      6.36%     90.68% |           5      2.12%     92.80% |           9      3.81%     96.61% |           8      3.39%    100.00%
system.ruby.L2Cache_Controller.MT_IIB.L1_GETS::total          236                      
system.ruby.L2Cache_Controller.MT_IIB.L1_PUTX |          12      2.68%      2.68% |           8      1.79%      4.46% |           8      1.79%      6.25% |          18      4.02%     10.27% |          10      2.23%     12.50% |          24      5.36%     17.86% |          31      6.92%     24.78% |          14      3.12%     27.90% |          18      4.02%     31.92% |           8      1.79%     33.71% |          19      4.24%     37.95% |          23      5.13%     43.08% |          19      4.24%     47.32% |          19      4.24%     51.56% |          38      8.48%     60.04% |          16      3.57%     63.62% |          17      3.79%     67.41% |           8      1.79%     69.20% |          13      2.90%     72.10% |          13      2.90%     75.00% |          15      3.35%     78.35% |           9      2.01%     80.36% |          10      2.23%     82.59% |          13      2.90%     85.49% |          11      2.46%     87.95% |           9      2.01%     89.96% |           6      1.34%     91.29% |           6      1.34%     92.63% |           4      0.89%     93.53% |           7      1.56%     95.09% |          13      2.90%     97.99% |           9      2.01%    100.00%
system.ruby.L2Cache_Controller.MT_IIB.L1_PUTX::total          448                      
system.ruby.L2Cache_Controller.MT_IIB.WB_Data |           0      0.00%      0.00% |           0      0.00%      0.00% |           0      0.00%      0.00% |           0      0.00%      0.00% |           0      0.00%      0.00% |           0      0.00%      0.00% |           0      0.00%      0.00% |           0      0.00%      0.00% |           0      0.00%      0.00% |           0      0.00%      0.00% |           0      0.00%      0.00% |           0      0.00%      0.00% |           0      0.00%      0.00% |           0      0.00%      0.00% |           0      0.00%      0.00% |           0      0.00%      0.00% |           0      0.00%      0.00% |           0      0.00%      0.00% |           0      0.00%      0.00% |           0      0.00%      0.00% |           0      0.00%      0.00% |           2     40.00%     40.00% |           0      0.00%     40.00% |           0      0.00%     40.00% |           0      0.00%     40.00% |           0      0.00%     40.00% |           1     20.00%     60.00% |           0      0.00%     60.00% |           0      0.00%     60.00% |           0      0.00%     60.00% |           0      0.00%     60.00% |           2     40.00%    100.00%
system.ruby.L2Cache_Controller.MT_IIB.WB_Data::total            5                      
system.ruby.L2Cache_Controller.MT_IIB.WB_Data_clean |        2302      3.48%      3.48% |        2343      3.54%      7.02% |        2404      3.63%     10.65% |        2551      3.86%     14.51% |        2566      3.88%     18.39% |        2455      3.71%     22.10% |        2474      3.74%     25.84% |        2229      3.37%     29.21% |        2022      3.06%     32.26% |        1909      2.89%     35.15% |        2098      3.17%     38.32% |        2076      3.14%     41.46% |        2150      3.25%     44.71% |        2085      3.15%     47.86% |        2131      3.22%     51.08% |        1963      2.97%     54.04% |        1857      2.81%     56.85% |        1750      2.64%     59.50% |        1829      2.76%     62.26% |        1848      2.79%     65.05% |        1912      2.89%     67.94% |        1742      2.63%     70.58% |        1895      2.86%     73.44% |        1747      2.64%     76.08% |        1845      2.79%     78.87% |        1934      2.92%     81.79% |        1877      2.84%     84.63% |        1902      2.87%     87.50% |        2126      3.21%     90.72% |        1996      3.02%     93.73% |        2100      3.17%     96.91% |        2046      3.09%    100.00%
system.ruby.L2Cache_Controller.MT_IIB.WB_Data_clean::total        66164                      
system.ruby.L2Cache_Controller.MT_IIB.Unblock |          44      1.06%      1.06% |          49      1.18%      2.24% |          91      2.19%      4.43% |          73      1.76%      6.18% |         125      3.01%      9.19% |         111      2.67%     11.86% |          86      2.07%     13.93% |         102      2.45%     16.39% |         102      2.45%     18.84% |          67      1.61%     20.45% |         148      3.56%     24.01% |         210      5.05%     29.07% |         144      3.46%     32.53% |         158      3.80%     36.33% |         200      4.81%     41.15% |         144      3.46%     44.61% |         122      2.94%     47.55% |          88      2.12%     49.66% |         108      2.60%     52.26% |         155      3.73%     55.99% |         187      4.50%     60.49% |          99      2.38%     62.87% |         141      3.39%     66.27% |         175      4.21%     70.48% |         210      5.05%     75.53% |         152      3.66%     79.19% |         159      3.83%     83.01% |         200      4.81%     87.82% |         135      3.25%     91.07% |         169      4.07%     95.14% |          92      2.21%     97.35% |         110      2.65%    100.00%
system.ruby.L2Cache_Controller.MT_IIB.Unblock::total         4156                      
system.ruby.L2Cache_Controller.MT_IB.L1_PUTX |           0      0.00%      0.00% |           0      0.00%      0.00% |           0      0.00%      0.00% |           0      0.00%      0.00% |           0      0.00%      0.00% |           0      0.00%      0.00% |           0      0.00%      0.00% |           0      0.00%      0.00% |           0      0.00%      0.00% |           0      0.00%      0.00% |           0      0.00%      0.00% |           0      0.00%      0.00% |           0      0.00%      0.00% |           0      0.00%      0.00% |           0      0.00%      0.00% |           0      0.00%      0.00% |           0      0.00%      0.00% |           0      0.00%      0.00% |           0      0.00%      0.00% |           0      0.00%      0.00% |           0      0.00%      0.00% |           0      0.00%      0.00% |           0      0.00%      0.00% |           0      0.00%      0.00% |           0      0.00%      0.00% |           0      0.00%      0.00% |           0      0.00%      0.00% |           1    100.00%    100.00% |           0      0.00%    100.00% |           0      0.00%    100.00% |           0      0.00%    100.00% |           0      0.00%    100.00%
system.ruby.L2Cache_Controller.MT_IB.L1_PUTX::total            1                      
system.ruby.L2Cache_Controller.MT_IB.WB_Data_clean |          44      1.06%      1.06% |          49      1.18%      2.24% |          91      2.19%      4.43% |          73      1.76%      6.18% |         125      3.01%      9.19% |         111      2.67%     11.86% |          86      2.07%     13.93% |         102      2.45%     16.39% |         102      2.45%     18.84% |          67      1.61%     20.45% |         148      3.56%     24.01% |         210      5.05%     29.07% |         144      3.46%     32.53% |         158      3.80%     36.33% |         200      4.81%     41.15% |         144      3.46%     44.61% |         122      2.94%     47.55% |          88      2.12%     49.66% |         108      2.60%     52.26% |         155      3.73%     55.99% |         187      4.50%     60.49% |          99      2.38%     62.87% |         141      3.39%     66.27% |         175      4.21%     70.48% |         210      5.05%     75.53% |         152      3.66%     79.19% |         159      3.83%     83.01% |         200      4.81%     87.82% |         135      3.25%     91.07% |         169      4.07%     95.14% |          92      2.21%     97.35% |         110      2.65%    100.00%
system.ruby.L2Cache_Controller.MT_IB.WB_Data_clean::total         4156                      
system.ruby.L2Cache_Controller.MT_SB.L1_GETS |           0      0.00%      0.00% |           0      0.00%      0.00% |           0      0.00%      0.00% |           1      3.70%      3.70% |           1      3.70%      7.41% |           1      3.70%     11.11% |           3     11.11%     22.22% |           2      7.41%     29.63% |           1      3.70%     33.33% |           1      3.70%     37.04% |           1      3.70%     40.74% |           1      3.70%     44.44% |           1      3.70%     48.15% |           0      0.00%     48.15% |           0      0.00%     48.15% |           2      7.41%     55.56% |           1      3.70%     59.26% |           1      3.70%     62.96% |           1      3.70%     66.67% |           0      0.00%     66.67% |           2      7.41%     74.07% |           1      3.70%     77.78% |           2      7.41%     85.19% |           1      3.70%     88.89% |           0      0.00%     88.89% |           0      0.00%     88.89% |           1      3.70%     92.59% |           0      0.00%     92.59% |           0      0.00%     92.59% |           0      0.00%     92.59% |           0      0.00%     92.59% |           2      7.41%    100.00%
system.ruby.L2Cache_Controller.MT_SB.L1_GETS::total           27                      
system.ruby.L2Cache_Controller.MT_SB.L1_PUTX |           0      0.00%      0.00% |           0      0.00%      0.00% |           0      0.00%      0.00% |           0      0.00%      0.00% |           1      5.56%      5.56% |           1      5.56%     11.11% |           1      5.56%     16.67% |           1      5.56%     22.22% |           0      0.00%     22.22% |           0      0.00%     22.22% |           0      0.00%     22.22% |           1      5.56%     27.78% |           1      5.56%     33.33% |           0      0.00%     33.33% |           3     16.67%     50.00% |           0      0.00%     50.00% |           1      5.56%     55.56% |           2     11.11%     66.67% |           1      5.56%     72.22% |           0      0.00%     72.22% |           1      5.56%     77.78% |           0      0.00%     77.78% |           2     11.11%     88.89% |           1      5.56%     94.44% |           1      5.56%    100.00% |           0      0.00%    100.00% |           0      0.00%    100.00% |           0      0.00%    100.00% |           0      0.00%    100.00% |           0      0.00%    100.00% |           0      0.00%    100.00% |           0      0.00%    100.00%
system.ruby.L2Cache_Controller.MT_SB.L1_PUTX::total           18                      
system.ruby.L2Cache_Controller.MT_SB.Unblock |        2302      3.48%      3.48% |        2343      3.54%      7.02% |        2404      3.63%     10.65% |        2551      3.86%     14.51% |        2566      3.88%     18.39% |        2455      3.71%     22.10% |        2474      3.74%     25.84% |        2229      3.37%     29.20% |        2022      3.06%     32.26% |        1909      2.89%     35.14% |        2098      3.17%     38.32% |        2076      3.14%     41.45% |        2150      3.25%     44.70% |        2085      3.15%     47.85% |        2131      3.22%     51.07% |        1963      2.97%     54.04% |        1857      2.81%     56.85% |        1750      2.64%     59.49% |        1829      2.76%     62.26% |        1848      2.79%     65.05% |        1912      2.89%     67.94% |        1744      2.64%     70.57% |        1895      2.86%     73.44% |        1747      2.64%     76.08% |        1845      2.79%     78.87% |        1934      2.92%     81.79% |        1878      2.84%     84.63% |        1902      2.87%     87.50% |        2126      3.21%     90.71% |        1996      3.02%     93.73% |        2100      3.17%     96.90% |        2048      3.10%    100.00%
system.ruby.L2Cache_Controller.MT_SB.Unblock::total        66169                      
system.ruby.SimicsNetworkPortInterface_Controller.MessageSend |      392568     20.31%     20.31% |      966335     50.00%     70.31% |       19413      1.00%     71.32% |       17640      0.91%     72.23% |       21019      1.09%     73.32% |       21865      1.13%     74.45% |       23740      1.23%     75.68% |       25845      1.34%     77.01% |       21267      1.10%     78.11% |       21761      1.13%     79.24% |       17369      0.90%     80.14% |       17408      0.90%     81.04% |       17319      0.90%     81.94% |       20622      1.07%     83.00% |       17785      0.92%     83.92% |       17635      0.91%     84.84% |       20846      1.08%     85.91% |       18070      0.93%     86.85% |       20322      1.05%     87.90% |       20192      1.04%     88.95% |       17721      0.92%     89.86% |       17535      0.91%     90.77% |       17655      0.91%     91.68% |       18423      0.95%     92.64% |       18242      0.94%     93.58% |       17747      0.92%     94.50% |       17290      0.89%     95.39% |       17394      0.90%     96.29% |       17677      0.91%     97.21% |       18380      0.95%     98.16% |       18066      0.93%     99.09% |       17519      0.91%    100.00%
system.ruby.SimicsNetworkPortInterface_Controller.MessageSend::total      1932670                      
system.ruby.SimicsNetworkPortInterface_Controller.MessageRecv |      392568     20.31%     20.31% |      966335     50.00%     70.31% |       19413      1.00%     71.32% |       17640      0.91%     72.23% |       21019      1.09%     73.32% |       21865      1.13%     74.45% |       23740      1.23%     75.68% |       25845      1.34%     77.01% |       21267      1.10%     78.11% |       21761      1.13%     79.24% |       17369      0.90%     80.14% |       17408      0.90%     81.04% |       17319      0.90%     81.94% |       20622      1.07%     83.00% |       17785      0.92%     83.92% |       17635      0.91%     84.84% |       20846      1.08%     85.91% |       18070      0.93%     86.85% |       20322      1.05%     87.90% |       20192      1.04%     88.95% |       17721      0.92%     89.86% |       17535      0.91%     90.77% |       17655      0.91%     91.68% |       18423      0.95%     92.64% |       18242      0.94%     93.58% |       17747      0.92%     94.50% |       17290      0.89%     95.39% |       17394      0.90%     96.29% |       17677      0.91%     97.21% |       18380      0.95%     98.16% |       18066      0.93%     99.09% |       17519      0.91%    100.00%
system.ruby.SimicsNetworkPortInterface_Controller.MessageRecv::total      1932670                      
system.ruby.SimicsNetworkPortInterface_Controller.A.MessageSend |      392568     20.31%     20.31% |      966335     50.00%     70.31% |       19413      1.00%     71.32% |       17640      0.91%     72.23% |       21019      1.09%     73.32% |       21865      1.13%     74.45% |       23740      1.23%     75.68% |       25845      1.34%     77.01% |       21267      1.10%     78.11% |       21761      1.13%     79.24% |       17369      0.90%     80.14% |       17408      0.90%     81.04% |       17319      0.90%     81.94% |       20622      1.07%     83.00% |       17785      0.92%     83.92% |       17635      0.91%     84.84% |       20846      1.08%     85.91% |       18070      0.93%     86.85% |       20322      1.05%     87.90% |       20192      1.04%     88.95% |       17721      0.92%     89.86% |       17535      0.91%     90.77% |       17655      0.91%     91.68% |       18423      0.95%     92.64% |       18242      0.94%     93.58% |       17747      0.92%     94.50% |       17290      0.89%     95.39% |       17394      0.90%     96.29% |       17677      0.91%     97.21% |       18380      0.95%     98.16% |       18066      0.93%     99.09% |       17519      0.91%    100.00%
system.ruby.SimicsNetworkPortInterface_Controller.A.MessageSend::total      1932670                      
system.ruby.SimicsNetworkPortInterface_Controller.A.MessageRecv |      392568     20.31%     20.31% |      966335     50.00%     70.31% |       19413      1.00%     71.32% |       17640      0.91%     72.23% |       21019      1.09%     73.32% |       21865      1.13%     74.45% |       23740      1.23%     75.68% |       25845      1.34%     77.01% |       21267      1.10%     78.11% |       21761      1.13%     79.24% |       17369      0.90%     80.14% |       17408      0.90%     81.04% |       17319      0.90%     81.94% |       20622      1.07%     83.00% |       17785      0.92%     83.92% |       17635      0.91%     84.84% |       20846      1.08%     85.91% |       18070      0.93%     86.85% |       20322      1.05%     87.90% |       20192      1.04%     88.95% |       17721      0.92%     89.86% |       17535      0.91%     90.77% |       17655      0.91%     91.68% |       18423      0.95%     92.64% |       18242      0.94%     93.58% |       17747      0.92%     94.50% |       17290      0.89%     95.39% |       17394      0.90%     96.29% |       17677      0.91%     97.21% |       18380      0.95%     98.16% |       18066      0.93%     99.09% |       17519      0.91%    100.00%
system.ruby.SimicsNetworkPortInterface_Controller.A.MessageRecv::total      1932670                      
system.switch_cpus.kern.inst.arm                    0                       # number of arm instructions executed
system.switch_cpus.kern.inst.quiesce                0                       # number of quiesce instructions executed

---------- End Simulation Statistics   ----------
