
---------- Begin Simulation Statistics ----------
sim_seconds                                  0.038876                       # Number of seconds simulated
sim_ticks                                 38875574500                       # Number of ticks simulated
final_tick                               5215043653000                       # Number of ticks from beginning of simulation (restored from checkpoints and never reset)
sim_freq                                 1000000000000                       # Frequency of simulated ticks
host_inst_rate                                  49860                       # Simulator instruction rate (inst/s)
host_op_rate                                    87758                       # Simulator op (including micro ops) rate (op/s)
host_tick_rate                              106303597                       # Simulator tick rate (ticks/s)
host_mem_usage                                3259872                       # Number of bytes of host memory used
host_seconds                                   365.70                       # Real time elapsed on the host
sim_insts                                    18234136                       # Number of instructions simulated
sim_ops                                      32093464                       # Number of ops (including micro ops) simulated
system.voltage_domain.voltage                       1                       # Voltage in Volts
system.clk_domain.clock                           500                       # Clock period in ticks
system.mem_ctrls0.bytes_read::ruby.dir_cntrl0      4688704                       # Number of bytes read from this memory
system.mem_ctrls0.bytes_read::total           4688704                       # Number of bytes read from this memory
system.mem_ctrls0.bytes_written::ruby.dir_cntrl0      2862144                       # Number of bytes written to this memory
system.mem_ctrls0.bytes_written::total        2862144                       # Number of bytes written to this memory
system.mem_ctrls0.num_reads::ruby.dir_cntrl0        73261                       # Number of read requests responded to by this memory
system.mem_ctrls0.num_reads::total              73261                       # Number of read requests responded to by this memory
system.mem_ctrls0.num_writes::ruby.dir_cntrl0        44721                       # Number of write requests responded to by this memory
system.mem_ctrls0.num_writes::total             44721                       # Number of write requests responded to by this memory
system.mem_ctrls0.bw_read::ruby.dir_cntrl0    120607967                       # Total read bandwidth from this memory (bytes/s)
system.mem_ctrls0.bw_read::total            120607967                       # Total read bandwidth from this memory (bytes/s)
system.mem_ctrls0.bw_write::ruby.dir_cntrl0     73623195                       # Write bandwidth from this memory (bytes/s)
system.mem_ctrls0.bw_write::total            73623195                       # Write bandwidth from this memory (bytes/s)
system.mem_ctrls0.bw_total::ruby.dir_cntrl0    194231162                       # Total bandwidth to/from this memory (bytes/s)
system.mem_ctrls0.bw_total::total           194231162                       # Total bandwidth to/from this memory (bytes/s)
system.mem_ctrls0.readReqs                      73261                       # Number of read requests accepted
system.mem_ctrls0.writeReqs                     44721                       # Number of write requests accepted
system.mem_ctrls0.readBursts                    73261                       # Number of DRAM read bursts, including those serviced by the write queue
system.mem_ctrls0.writeBursts                   44721                       # Number of DRAM write bursts, including those merged in the write queue
system.mem_ctrls0.bytesReadDRAM               4687872                       # Total number of bytes read from DRAM
system.mem_ctrls0.bytesReadWrQ                    832                       # Total number of bytes read from write queue
system.mem_ctrls0.bytesWritten                2861952                       # Total number of bytes written to DRAM
system.mem_ctrls0.bytesReadSys                4688704                       # Total read bytes from the system interface side
system.mem_ctrls0.bytesWrittenSys             2862144                       # Total written bytes from the system interface side
system.mem_ctrls0.servicedByWrQ                    13                       # Number of DRAM read bursts serviced by the write queue
system.mem_ctrls0.mergedWrBursts                    0                       # Number of DRAM write bursts merged with an existing one
system.mem_ctrls0.neitherReadNorWriteReqs            0                       # Number of requests that are neither read nor write
system.mem_ctrls0.perBankRdBursts::0             4426                       # Per bank write bursts
system.mem_ctrls0.perBankRdBursts::1             4891                       # Per bank write bursts
system.mem_ctrls0.perBankRdBursts::2             4541                       # Per bank write bursts
system.mem_ctrls0.perBankRdBursts::3             4886                       # Per bank write bursts
system.mem_ctrls0.perBankRdBursts::4             4634                       # Per bank write bursts
system.mem_ctrls0.perBankRdBursts::5             4726                       # Per bank write bursts
system.mem_ctrls0.perBankRdBursts::6             4552                       # Per bank write bursts
system.mem_ctrls0.perBankRdBursts::7             4522                       # Per bank write bursts
system.mem_ctrls0.perBankRdBursts::8             4505                       # Per bank write bursts
system.mem_ctrls0.perBankRdBursts::9             4793                       # Per bank write bursts
system.mem_ctrls0.perBankRdBursts::10            4517                       # Per bank write bursts
system.mem_ctrls0.perBankRdBursts::11            4732                       # Per bank write bursts
system.mem_ctrls0.perBankRdBursts::12            4351                       # Per bank write bursts
system.mem_ctrls0.perBankRdBursts::13            4197                       # Per bank write bursts
system.mem_ctrls0.perBankRdBursts::14            4469                       # Per bank write bursts
system.mem_ctrls0.perBankRdBursts::15            4506                       # Per bank write bursts
system.mem_ctrls0.perBankWrBursts::0             2818                       # Per bank write bursts
system.mem_ctrls0.perBankWrBursts::1             2810                       # Per bank write bursts
system.mem_ctrls0.perBankWrBursts::2             2793                       # Per bank write bursts
system.mem_ctrls0.perBankWrBursts::3             2882                       # Per bank write bursts
system.mem_ctrls0.perBankWrBursts::4             2801                       # Per bank write bursts
system.mem_ctrls0.perBankWrBursts::5             2939                       # Per bank write bursts
system.mem_ctrls0.perBankWrBursts::6             2769                       # Per bank write bursts
system.mem_ctrls0.perBankWrBursts::7             2845                       # Per bank write bursts
system.mem_ctrls0.perBankWrBursts::8             2739                       # Per bank write bursts
system.mem_ctrls0.perBankWrBursts::9             2919                       # Per bank write bursts
system.mem_ctrls0.perBankWrBursts::10            2766                       # Per bank write bursts
system.mem_ctrls0.perBankWrBursts::11            2698                       # Per bank write bursts
system.mem_ctrls0.perBankWrBursts::12            2633                       # Per bank write bursts
system.mem_ctrls0.perBankWrBursts::13            2669                       # Per bank write bursts
system.mem_ctrls0.perBankWrBursts::14            2876                       # Per bank write bursts
system.mem_ctrls0.perBankWrBursts::15            2761                       # Per bank write bursts
system.mem_ctrls0.numRdRetry                      364                       # Number of times read queue was full causing retry
system.mem_ctrls0.numWrRetry                     2292                       # Number of times write queue was full causing retry
system.mem_ctrls0.totGap                  38875062000                       # Total gap between requests
system.mem_ctrls0.readPktSize::0                    0                       # Read request sizes (log2)
system.mem_ctrls0.readPktSize::1                    0                       # Read request sizes (log2)
system.mem_ctrls0.readPktSize::2                    0                       # Read request sizes (log2)
system.mem_ctrls0.readPktSize::3                    0                       # Read request sizes (log2)
system.mem_ctrls0.readPktSize::4                    0                       # Read request sizes (log2)
system.mem_ctrls0.readPktSize::5                    0                       # Read request sizes (log2)
system.mem_ctrls0.readPktSize::6                73261                       # Read request sizes (log2)
system.mem_ctrls0.writePktSize::0                   0                       # Write request sizes (log2)
system.mem_ctrls0.writePktSize::1                   0                       # Write request sizes (log2)
system.mem_ctrls0.writePktSize::2                   0                       # Write request sizes (log2)
system.mem_ctrls0.writePktSize::3                   0                       # Write request sizes (log2)
system.mem_ctrls0.writePktSize::4                   0                       # Write request sizes (log2)
system.mem_ctrls0.writePktSize::5                   0                       # Write request sizes (log2)
system.mem_ctrls0.writePktSize::6               44721                       # Write request sizes (log2)
system.mem_ctrls0.rdQLenPdf::0                  46809                       # What read queue length does an incoming req see
system.mem_ctrls0.rdQLenPdf::1                   5565                       # What read queue length does an incoming req see
system.mem_ctrls0.rdQLenPdf::2                   4213                       # What read queue length does an incoming req see
system.mem_ctrls0.rdQLenPdf::3                   2963                       # What read queue length does an incoming req see
system.mem_ctrls0.rdQLenPdf::4                   2175                       # What read queue length does an incoming req see
system.mem_ctrls0.rdQLenPdf::5                   1644                       # What read queue length does an incoming req see
system.mem_ctrls0.rdQLenPdf::6                   1295                       # What read queue length does an incoming req see
system.mem_ctrls0.rdQLenPdf::7                   1094                       # What read queue length does an incoming req see
system.mem_ctrls0.rdQLenPdf::8                    894                       # What read queue length does an incoming req see
system.mem_ctrls0.rdQLenPdf::9                    760                       # What read queue length does an incoming req see
system.mem_ctrls0.rdQLenPdf::10                   644                       # What read queue length does an incoming req see
system.mem_ctrls0.rdQLenPdf::11                   522                       # What read queue length does an incoming req see
system.mem_ctrls0.rdQLenPdf::12                   428                       # What read queue length does an incoming req see
system.mem_ctrls0.rdQLenPdf::13                   408                       # What read queue length does an incoming req see
system.mem_ctrls0.rdQLenPdf::14                   354                       # What read queue length does an incoming req see
system.mem_ctrls0.rdQLenPdf::15                   317                       # What read queue length does an incoming req see
system.mem_ctrls0.rdQLenPdf::16                   312                       # What read queue length does an incoming req see
system.mem_ctrls0.rdQLenPdf::17                   259                       # What read queue length does an incoming req see
system.mem_ctrls0.rdQLenPdf::18                   231                       # What read queue length does an incoming req see
system.mem_ctrls0.rdQLenPdf::19                   209                       # What read queue length does an incoming req see
system.mem_ctrls0.rdQLenPdf::20                   183                       # What read queue length does an incoming req see
system.mem_ctrls0.rdQLenPdf::21                   187                       # What read queue length does an incoming req see
system.mem_ctrls0.rdQLenPdf::22                   188                       # What read queue length does an incoming req see
system.mem_ctrls0.rdQLenPdf::23                   165                       # What read queue length does an incoming req see
system.mem_ctrls0.rdQLenPdf::24                   162                       # What read queue length does an incoming req see
system.mem_ctrls0.rdQLenPdf::25                   146                       # What read queue length does an incoming req see
system.mem_ctrls0.rdQLenPdf::26                   165                       # What read queue length does an incoming req see
system.mem_ctrls0.rdQLenPdf::27                   141                       # What read queue length does an incoming req see
system.mem_ctrls0.rdQLenPdf::28                   139                       # What read queue length does an incoming req see
system.mem_ctrls0.rdQLenPdf::29                   119                       # What read queue length does an incoming req see
system.mem_ctrls0.rdQLenPdf::30                   108                       # What read queue length does an incoming req see
system.mem_ctrls0.rdQLenPdf::31                   449                       # What read queue length does an incoming req see
system.mem_ctrls0.wrQLenPdf::0                   7757                       # What write queue length does an incoming req see
system.mem_ctrls0.wrQLenPdf::1                   8005                       # What write queue length does an incoming req see
system.mem_ctrls0.wrQLenPdf::2                   8162                       # What write queue length does an incoming req see
system.mem_ctrls0.wrQLenPdf::3                   8258                       # What write queue length does an incoming req see
system.mem_ctrls0.wrQLenPdf::4                   8339                       # What write queue length does an incoming req see
system.mem_ctrls0.wrQLenPdf::5                    708                       # What write queue length does an incoming req see
system.mem_ctrls0.wrQLenPdf::6                    611                       # What write queue length does an incoming req see
system.mem_ctrls0.wrQLenPdf::7                   2881                       # What write queue length does an incoming req see
system.mem_ctrls0.bytesPerActivate::samples        32553                       # Bytes accessed per row activation
system.mem_ctrls0.bytesPerActivate::mean   231.870980                       # Bytes accessed per row activation
system.mem_ctrls0.bytesPerActivate::gmean   156.774001                       # Bytes accessed per row activation
system.mem_ctrls0.bytesPerActivate::stdev   232.424356                       # Bytes accessed per row activation
system.mem_ctrls0.bytesPerActivate::0-127        12702     39.02%     39.02% # Bytes accessed per row activation
system.mem_ctrls0.bytesPerActivate::128-255         7343     22.56%     61.58% # Bytes accessed per row activation
system.mem_ctrls0.bytesPerActivate::256-383         8032     24.67%     86.25% # Bytes accessed per row activation
system.mem_ctrls0.bytesPerActivate::384-511         1056      3.24%     89.49% # Bytes accessed per row activation
system.mem_ctrls0.bytesPerActivate::512-639          786      2.41%     91.91% # Bytes accessed per row activation
system.mem_ctrls0.bytesPerActivate::640-767          607      1.86%     93.77% # Bytes accessed per row activation
system.mem_ctrls0.bytesPerActivate::768-895          446      1.37%     95.14% # Bytes accessed per row activation
system.mem_ctrls0.bytesPerActivate::896-1023          430      1.32%     96.46% # Bytes accessed per row activation
system.mem_ctrls0.bytesPerActivate::1024-1151         1151      3.54%    100.00% # Bytes accessed per row activation
system.mem_ctrls0.bytesPerActivate::total        32553                       # Bytes accessed per row activation
system.mem_ctrls0.rdPerTurnAround::samples         7985                       # Reads before turning the bus around for writes
system.mem_ctrls0.rdPerTurnAround::mean      9.169818                       # Reads before turning the bus around for writes
system.mem_ctrls0.rdPerTurnAround::stdev    45.920399                       # Reads before turning the bus around for writes
system.mem_ctrls0.rdPerTurnAround::0-127         7978     99.91%     99.91% # Reads before turning the bus around for writes
system.mem_ctrls0.rdPerTurnAround::128-255            6      0.08%     99.99% # Reads before turning the bus around for writes
system.mem_ctrls0.rdPerTurnAround::3968-4095            1      0.01%    100.00% # Reads before turning the bus around for writes
system.mem_ctrls0.rdPerTurnAround::total         7985                       # Reads before turning the bus around for writes
system.mem_ctrls0.wrPerTurnAround::samples         7985                       # Writes before turning the bus around for reads
system.mem_ctrls0.wrPerTurnAround::mean      5.600250                       # Writes before turning the bus around for reads
system.mem_ctrls0.wrPerTurnAround::gmean     5.379036                       # Writes before turning the bus around for reads
system.mem_ctrls0.wrPerTurnAround::stdev     2.172312                       # Writes before turning the bus around for reads
system.mem_ctrls0.wrPerTurnAround::4-7           7465     93.49%     93.49% # Writes before turning the bus around for reads
system.mem_ctrls0.wrPerTurnAround::8-11           175      2.19%     95.68% # Writes before turning the bus around for reads
system.mem_ctrls0.wrPerTurnAround::12-15          100      1.25%     96.93% # Writes before turning the bus around for reads
system.mem_ctrls0.wrPerTurnAround::16-19          245      3.07%    100.00% # Writes before turning the bus around for reads
system.mem_ctrls0.wrPerTurnAround::total         7985                       # Writes before turning the bus around for reads
system.mem_ctrls0.totQLat                  3178690346                       # Total ticks spent queuing
system.mem_ctrls0.totMemAccLat             4552090346                       # Total ticks spent from burst creation until serviced by the DRAM
system.mem_ctrls0.totBusLat                 366240000                       # Total ticks spent in databus transfers
system.mem_ctrls0.avgQLat                    43396.27                       # Average queueing delay per DRAM burst
system.mem_ctrls0.avgBusLat                   5000.00                       # Average bus latency per DRAM burst
system.mem_ctrls0.avgMemAccLat               62146.27                       # Average memory access latency per DRAM burst
system.mem_ctrls0.avgRdBW                      120.59                       # Average DRAM read bandwidth in MiByte/s
system.mem_ctrls0.avgWrBW                       73.62                       # Average achieved write bandwidth in MiByte/s
system.mem_ctrls0.avgRdBWSys                   120.61                       # Average system read bandwidth in MiByte/s
system.mem_ctrls0.avgWrBWSys                    73.62                       # Average system write bandwidth in MiByte/s
system.mem_ctrls0.peakBW                     12800.00                       # Theoretical peak bandwidth in MiByte/s
system.mem_ctrls0.busUtil                        1.52                       # Data bus utilization in percentage
system.mem_ctrls0.busUtilRead                    0.94                       # Data bus utilization in percentage for reads
system.mem_ctrls0.busUtilWrite                   0.58                       # Data bus utilization in percentage for writes
system.mem_ctrls0.avgRdQLen                      1.11                       # Average read queue length when enqueuing
system.mem_ctrls0.avgWrQLen                      2.87                       # Average write queue length when enqueuing
system.mem_ctrls0.readRowHits                   56102                       # Number of row buffer hits during reads
system.mem_ctrls0.writeRowHits                  29301                       # Number of row buffer hits during writes
system.mem_ctrls0.readRowHitRate                76.59                       # Row buffer hit rate for reads
system.mem_ctrls0.writeRowHitRate               65.52                       # Row buffer hit rate for writes
system.mem_ctrls0.avgGap                    329499.94                       # Average gap between requests
system.mem_ctrls0.pageHitRate                   72.39                       # Row buffer hit rate, read and write combined
system.mem_ctrls0.memoryStateTime::IDLE   10429733750                       # Time in different power states
system.mem_ctrls0.memoryStateTime::REF     1297920000                       # Time in different power states
system.mem_ctrls0.memoryStateTime::PRE_PDN            0                       # Time in different power states
system.mem_ctrls0.memoryStateTime::ACT    27141649500                       # Time in different power states
system.mem_ctrls0.memoryStateTime::ACT_PDN            0                       # Time in different power states
system.mem_ctrls0.actEnergy::0              127416240                       # Energy for activate commands per rank (pJ)
system.mem_ctrls0.actEnergy::1              118623960                       # Energy for activate commands per rank (pJ)
system.mem_ctrls0.preEnergy::0               69522750                       # Energy for precharge commands per rank (pJ)
system.mem_ctrls0.preEnergy::1               64725375                       # Energy for precharge commands per rank (pJ)
system.mem_ctrls0.readEnergy::0             289637400                       # Energy for read commands per rank (pJ)
system.mem_ctrls0.readEnergy::1             281229000                       # Energy for read commands per rank (pJ)
system.mem_ctrls0.writeEnergy::0            146784960                       # Energy for write commands per rank (pJ)
system.mem_ctrls0.writeEnergy::1            142955280                       # Energy for write commands per rank (pJ)
system.mem_ctrls0.refreshEnergy::0         2538731520                       # Energy for refresh commands per rank (pJ)
system.mem_ctrls0.refreshEnergy::1         2538731520                       # Energy for refresh commands per rank (pJ)
system.mem_ctrls0.actBackEnergy::0        14182132950                       # Energy for active background per rank (pJ)
system.mem_ctrls0.actBackEnergy::1        13820189220                       # Energy for active background per rank (pJ)
system.mem_ctrls0.preBackEnergy::0        10881106500                       # Energy for precharge background per rank (pJ)
system.mem_ctrls0.preBackEnergy::1        11198601000                       # Energy for precharge background per rank (pJ)
system.mem_ctrls0.totalEnergy::0          28235332320                       # Total energy per rank (pJ)
system.mem_ctrls0.totalEnergy::1          28165055355                       # Total energy per rank (pJ)
system.mem_ctrls0.averagePower::0          726.417496                       # Core power per rank (mW)
system.mem_ctrls0.averagePower::1          724.609463                       # Core power per rank (mW)
system.mem_ctrls1.bytes_read::ruby.dir_cntrl1      4564288                       # Number of bytes read from this memory
system.mem_ctrls1.bytes_read::total           4564288                       # Number of bytes read from this memory
system.mem_ctrls1.bytes_written::ruby.dir_cntrl1      2746624                       # Number of bytes written to this memory
system.mem_ctrls1.bytes_written::total        2746624                       # Number of bytes written to this memory
system.mem_ctrls1.num_reads::ruby.dir_cntrl1        71317                       # Number of read requests responded to by this memory
system.mem_ctrls1.num_reads::total              71317                       # Number of read requests responded to by this memory
system.mem_ctrls1.num_writes::ruby.dir_cntrl1        42916                       # Number of write requests responded to by this memory
system.mem_ctrls1.num_writes::total             42916                       # Number of write requests responded to by this memory
system.mem_ctrls1.bw_read::ruby.dir_cntrl1    117407603                       # Total read bandwidth from this memory (bytes/s)
system.mem_ctrls1.bw_read::total            117407603                       # Total read bandwidth from this memory (bytes/s)
system.mem_ctrls1.bw_write::ruby.dir_cntrl1     70651663                       # Write bandwidth from this memory (bytes/s)
system.mem_ctrls1.bw_write::total            70651663                       # Write bandwidth from this memory (bytes/s)
system.mem_ctrls1.bw_total::ruby.dir_cntrl1    188059266                       # Total bandwidth to/from this memory (bytes/s)
system.mem_ctrls1.bw_total::total           188059266                       # Total bandwidth to/from this memory (bytes/s)
system.mem_ctrls1.readReqs                      71317                       # Number of read requests accepted
system.mem_ctrls1.writeReqs                     42916                       # Number of write requests accepted
system.mem_ctrls1.readBursts                    71317                       # Number of DRAM read bursts, including those serviced by the write queue
system.mem_ctrls1.writeBursts                   42916                       # Number of DRAM write bursts, including those merged in the write queue
system.mem_ctrls1.bytesReadDRAM               4563072                       # Total number of bytes read from DRAM
system.mem_ctrls1.bytesReadWrQ                   1216                       # Total number of bytes read from write queue
system.mem_ctrls1.bytesWritten                2746368                       # Total number of bytes written to DRAM
system.mem_ctrls1.bytesReadSys                4564288                       # Total read bytes from the system interface side
system.mem_ctrls1.bytesWrittenSys             2746624                       # Total written bytes from the system interface side
system.mem_ctrls1.servicedByWrQ                    19                       # Number of DRAM read bursts serviced by the write queue
system.mem_ctrls1.mergedWrBursts                    0                       # Number of DRAM write bursts merged with an existing one
system.mem_ctrls1.neitherReadNorWriteReqs            0                       # Number of requests that are neither read nor write
system.mem_ctrls1.perBankRdBursts::0             4309                       # Per bank write bursts
system.mem_ctrls1.perBankRdBursts::1             4752                       # Per bank write bursts
system.mem_ctrls1.perBankRdBursts::2             4420                       # Per bank write bursts
system.mem_ctrls1.perBankRdBursts::3             4767                       # Per bank write bursts
system.mem_ctrls1.perBankRdBursts::4             4524                       # Per bank write bursts
system.mem_ctrls1.perBankRdBursts::5             4631                       # Per bank write bursts
system.mem_ctrls1.perBankRdBursts::6             4426                       # Per bank write bursts
system.mem_ctrls1.perBankRdBursts::7             4425                       # Per bank write bursts
system.mem_ctrls1.perBankRdBursts::8             4374                       # Per bank write bursts
system.mem_ctrls1.perBankRdBursts::9             4671                       # Per bank write bursts
system.mem_ctrls1.perBankRdBursts::10            4400                       # Per bank write bursts
system.mem_ctrls1.perBankRdBursts::11            4614                       # Per bank write bursts
system.mem_ctrls1.perBankRdBursts::12            4228                       # Per bank write bursts
system.mem_ctrls1.perBankRdBursts::13            4084                       # Per bank write bursts
system.mem_ctrls1.perBankRdBursts::14            4274                       # Per bank write bursts
system.mem_ctrls1.perBankRdBursts::15            4399                       # Per bank write bursts
system.mem_ctrls1.perBankWrBursts::0             2710                       # Per bank write bursts
system.mem_ctrls1.perBankWrBursts::1             2714                       # Per bank write bursts
system.mem_ctrls1.perBankWrBursts::2             2691                       # Per bank write bursts
system.mem_ctrls1.perBankWrBursts::3             2773                       # Per bank write bursts
system.mem_ctrls1.perBankWrBursts::4             2699                       # Per bank write bursts
system.mem_ctrls1.perBankWrBursts::5             2829                       # Per bank write bursts
system.mem_ctrls1.perBankWrBursts::6             2643                       # Per bank write bursts
system.mem_ctrls1.perBankWrBursts::7             2732                       # Per bank write bursts
system.mem_ctrls1.perBankWrBursts::8             2629                       # Per bank write bursts
system.mem_ctrls1.perBankWrBursts::9             2805                       # Per bank write bursts
system.mem_ctrls1.perBankWrBursts::10            2661                       # Per bank write bursts
system.mem_ctrls1.perBankWrBursts::11            2586                       # Per bank write bursts
system.mem_ctrls1.perBankWrBursts::12            2527                       # Per bank write bursts
system.mem_ctrls1.perBankWrBursts::13            2553                       # Per bank write bursts
system.mem_ctrls1.perBankWrBursts::14            2708                       # Per bank write bursts
system.mem_ctrls1.perBankWrBursts::15            2652                       # Per bank write bursts
system.mem_ctrls1.numRdRetry                      393                       # Number of times read queue was full causing retry
system.mem_ctrls1.numWrRetry                     2138                       # Number of times write queue was full causing retry
system.mem_ctrls1.totGap                  38874810000                       # Total gap between requests
system.mem_ctrls1.readPktSize::0                    0                       # Read request sizes (log2)
system.mem_ctrls1.readPktSize::1                    0                       # Read request sizes (log2)
system.mem_ctrls1.readPktSize::2                    0                       # Read request sizes (log2)
system.mem_ctrls1.readPktSize::3                    0                       # Read request sizes (log2)
system.mem_ctrls1.readPktSize::4                    0                       # Read request sizes (log2)
system.mem_ctrls1.readPktSize::5                    0                       # Read request sizes (log2)
system.mem_ctrls1.readPktSize::6                71317                       # Read request sizes (log2)
system.mem_ctrls1.writePktSize::0                   0                       # Write request sizes (log2)
system.mem_ctrls1.writePktSize::1                   0                       # Write request sizes (log2)
system.mem_ctrls1.writePktSize::2                   0                       # Write request sizes (log2)
system.mem_ctrls1.writePktSize::3                   0                       # Write request sizes (log2)
system.mem_ctrls1.writePktSize::4                   0                       # Write request sizes (log2)
system.mem_ctrls1.writePktSize::5                   0                       # Write request sizes (log2)
system.mem_ctrls1.writePktSize::6               42916                       # Write request sizes (log2)
system.mem_ctrls1.rdQLenPdf::0                  45992                       # What read queue length does an incoming req see
system.mem_ctrls1.rdQLenPdf::1                   4753                       # What read queue length does an incoming req see
system.mem_ctrls1.rdQLenPdf::2                   3862                       # What read queue length does an incoming req see
system.mem_ctrls1.rdQLenPdf::3                   3026                       # What read queue length does an incoming req see
system.mem_ctrls1.rdQLenPdf::4                   2238                       # What read queue length does an incoming req see
system.mem_ctrls1.rdQLenPdf::5                   1795                       # What read queue length does an incoming req see
system.mem_ctrls1.rdQLenPdf::6                   1350                       # What read queue length does an incoming req see
system.mem_ctrls1.rdQLenPdf::7                   1070                       # What read queue length does an incoming req see
system.mem_ctrls1.rdQLenPdf::8                    867                       # What read queue length does an incoming req see
system.mem_ctrls1.rdQLenPdf::9                    748                       # What read queue length does an incoming req see
system.mem_ctrls1.rdQLenPdf::10                   616                       # What read queue length does an incoming req see
system.mem_ctrls1.rdQLenPdf::11                   536                       # What read queue length does an incoming req see
system.mem_ctrls1.rdQLenPdf::12                   445                       # What read queue length does an incoming req see
system.mem_ctrls1.rdQLenPdf::13                   385                       # What read queue length does an incoming req see
system.mem_ctrls1.rdQLenPdf::14                   333                       # What read queue length does an incoming req see
system.mem_ctrls1.rdQLenPdf::15                   312                       # What read queue length does an incoming req see
system.mem_ctrls1.rdQLenPdf::16                   308                       # What read queue length does an incoming req see
system.mem_ctrls1.rdQLenPdf::17                   236                       # What read queue length does an incoming req see
system.mem_ctrls1.rdQLenPdf::18                   226                       # What read queue length does an incoming req see
system.mem_ctrls1.rdQLenPdf::19                   214                       # What read queue length does an incoming req see
system.mem_ctrls1.rdQLenPdf::20                   183                       # What read queue length does an incoming req see
system.mem_ctrls1.rdQLenPdf::21                   144                       # What read queue length does an incoming req see
system.mem_ctrls1.rdQLenPdf::22                   157                       # What read queue length does an incoming req see
system.mem_ctrls1.rdQLenPdf::23                   152                       # What read queue length does an incoming req see
system.mem_ctrls1.rdQLenPdf::24                   151                       # What read queue length does an incoming req see
system.mem_ctrls1.rdQLenPdf::25                   136                       # What read queue length does an incoming req see
system.mem_ctrls1.rdQLenPdf::26                   119                       # What read queue length does an incoming req see
system.mem_ctrls1.rdQLenPdf::27                   117                       # What read queue length does an incoming req see
system.mem_ctrls1.rdQLenPdf::28                   113                       # What read queue length does an incoming req see
system.mem_ctrls1.rdQLenPdf::29                   104                       # What read queue length does an incoming req see
system.mem_ctrls1.rdQLenPdf::30                   103                       # What read queue length does an incoming req see
system.mem_ctrls1.rdQLenPdf::31                   507                       # What read queue length does an incoming req see
system.mem_ctrls1.wrQLenPdf::0                   7441                       # What write queue length does an incoming req see
system.mem_ctrls1.wrQLenPdf::1                   7658                       # What write queue length does an incoming req see
system.mem_ctrls1.wrQLenPdf::2                   7791                       # What write queue length does an incoming req see
system.mem_ctrls1.wrQLenPdf::3                   7895                       # What write queue length does an incoming req see
system.mem_ctrls1.wrQLenPdf::4                   7994                       # What write queue length does an incoming req see
system.mem_ctrls1.wrQLenPdf::5                    726                       # What write queue length does an incoming req see
system.mem_ctrls1.wrQLenPdf::6                    660                       # What write queue length does an incoming req see
system.mem_ctrls1.wrQLenPdf::7                   2751                       # What write queue length does an incoming req see
system.mem_ctrls1.bytesPerActivate::samples        28657                       # Bytes accessed per row activation
system.mem_ctrls1.bytesPerActivate::mean   255.039676                       # Bytes accessed per row activation
system.mem_ctrls1.bytesPerActivate::gmean   175.470607                       # Bytes accessed per row activation
system.mem_ctrls1.bytesPerActivate::stdev   240.757130                       # Bytes accessed per row activation
system.mem_ctrls1.bytesPerActivate::0-127         9325     32.54%     32.54% # Bytes accessed per row activation
system.mem_ctrls1.bytesPerActivate::128-255         6727     23.47%     56.01% # Bytes accessed per row activation
system.mem_ctrls1.bytesPerActivate::256-383         7966     27.80%     83.81% # Bytes accessed per row activation
system.mem_ctrls1.bytesPerActivate::384-511         1161      4.05%     87.86% # Bytes accessed per row activation
system.mem_ctrls1.bytesPerActivate::512-639          819      2.86%     90.72% # Bytes accessed per row activation
system.mem_ctrls1.bytesPerActivate::640-767          567      1.98%     92.70% # Bytes accessed per row activation
system.mem_ctrls1.bytesPerActivate::768-895          496      1.73%     94.43% # Bytes accessed per row activation
system.mem_ctrls1.bytesPerActivate::896-1023          468      1.63%     96.06% # Bytes accessed per row activation
system.mem_ctrls1.bytesPerActivate::1024-1151         1128      3.94%    100.00% # Bytes accessed per row activation
system.mem_ctrls1.bytesPerActivate::total        28657                       # Bytes accessed per row activation
system.mem_ctrls1.rdPerTurnAround::samples         7665                       # Reads before turning the bus around for writes
system.mem_ctrls1.rdPerTurnAround::mean      9.296934                       # Reads before turning the bus around for writes
system.mem_ctrls1.rdPerTurnAround::stdev    37.310251                       # Reads before turning the bus around for writes
system.mem_ctrls1.rdPerTurnAround::0-127         7657     99.90%     99.90% # Reads before turning the bus around for writes
system.mem_ctrls1.rdPerTurnAround::128-255            6      0.08%     99.97% # Reads before turning the bus around for writes
system.mem_ctrls1.rdPerTurnAround::1152-1279            1      0.01%     99.99% # Reads before turning the bus around for writes
system.mem_ctrls1.rdPerTurnAround::2816-2943            1      0.01%    100.00% # Reads before turning the bus around for writes
system.mem_ctrls1.rdPerTurnAround::total         7665                       # Reads before turning the bus around for writes
system.mem_ctrls1.wrPerTurnAround::samples         7665                       # Writes before turning the bus around for reads
system.mem_ctrls1.wrPerTurnAround::mean      5.598434                       # Writes before turning the bus around for reads
system.mem_ctrls1.wrPerTurnAround::gmean     5.368699                       # Writes before turning the bus around for reads
system.mem_ctrls1.wrPerTurnAround::stdev     2.221725                       # Writes before turning the bus around for reads
system.mem_ctrls1.wrPerTurnAround::4-7           7165     93.48%     93.48% # Writes before turning the bus around for reads
system.mem_ctrls1.wrPerTurnAround::8-11           149      1.94%     95.42% # Writes before turning the bus around for reads
system.mem_ctrls1.wrPerTurnAround::12-15          100      1.30%     96.73% # Writes before turning the bus around for reads
system.mem_ctrls1.wrPerTurnAround::16-19          251      3.27%    100.00% # Writes before turning the bus around for reads
system.mem_ctrls1.wrPerTurnAround::total         7665                       # Writes before turning the bus around for reads
system.mem_ctrls1.totQLat                  2881802389                       # Total ticks spent queuing
system.mem_ctrls1.totMemAccLat             4218639889                       # Total ticks spent from burst creation until serviced by the DRAM
system.mem_ctrls1.totBusLat                 356490000                       # Total ticks spent in databus transfers
system.mem_ctrls1.avgQLat                    40419.12                       # Average queueing delay per DRAM burst
system.mem_ctrls1.avgBusLat                   5000.00                       # Average bus latency per DRAM burst
system.mem_ctrls1.avgMemAccLat               59169.12                       # Average memory access latency per DRAM burst
system.mem_ctrls1.avgRdBW                      117.38                       # Average DRAM read bandwidth in MiByte/s
system.mem_ctrls1.avgWrBW                       70.65                       # Average achieved write bandwidth in MiByte/s
system.mem_ctrls1.avgRdBWSys                   117.41                       # Average system read bandwidth in MiByte/s
system.mem_ctrls1.avgWrBWSys                    70.65                       # Average system write bandwidth in MiByte/s
system.mem_ctrls1.peakBW                     12800.00                       # Theoretical peak bandwidth in MiByte/s
system.mem_ctrls1.busUtil                        1.47                       # Data bus utilization in percentage
system.mem_ctrls1.busUtilRead                    0.92                       # Data bus utilization in percentage for reads
system.mem_ctrls1.busUtilWrite                   0.55                       # Data bus utilization in percentage for writes
system.mem_ctrls1.avgRdQLen                      1.10                       # Average read queue length when enqueuing
system.mem_ctrls1.avgWrQLen                      2.86                       # Average write queue length when enqueuing
system.mem_ctrls1.readRowHits                   55744                       # Number of row buffer hits during reads
system.mem_ctrls1.writeRowHits                  29805                       # Number of row buffer hits during writes
system.mem_ctrls1.readRowHitRate                78.18                       # Row buffer hit rate for reads
system.mem_ctrls1.writeRowHitRate               69.45                       # Row buffer hit rate for writes
system.mem_ctrls1.avgGap                    340311.56                       # Average gap between requests
system.mem_ctrls1.pageHitRate                   74.90                       # Row buffer hit rate, read and write combined
system.mem_ctrls1.memoryStateTime::IDLE   10617825000                       # Time in different power states
system.mem_ctrls1.memoryStateTime::REF     1297920000                       # Time in different power states
system.mem_ctrls1.memoryStateTime::PRE_PDN            0                       # Time in different power states
system.mem_ctrls1.memoryStateTime::ACT    26953521250                       # Time in different power states
system.mem_ctrls1.memoryStateTime::ACT_PDN            0                       # Time in different power states
system.mem_ctrls1.actEnergy::0              112931280                       # Energy for activate commands per rank (pJ)
system.mem_ctrls1.actEnergy::1              103670280                       # Energy for activate commands per rank (pJ)
system.mem_ctrls1.preEnergy::0               61619250                       # Energy for precharge commands per rank (pJ)
system.mem_ctrls1.preEnergy::1               56566125                       # Energy for precharge commands per rank (pJ)
system.mem_ctrls1.readEnergy::0             282406800                       # Energy for read commands per rank (pJ)
system.mem_ctrls1.readEnergy::1             273249600                       # Energy for read commands per rank (pJ)
system.mem_ctrls1.writeEnergy::0            141179760                       # Energy for write commands per rank (pJ)
system.mem_ctrls1.writeEnergy::1            136857600                       # Energy for write commands per rank (pJ)
system.mem_ctrls1.refreshEnergy::0         2538731520                       # Energy for refresh commands per rank (pJ)
system.mem_ctrls1.refreshEnergy::1         2538731520                       # Energy for refresh commands per rank (pJ)
system.mem_ctrls1.actBackEnergy::0        14053414410                       # Energy for active background per rank (pJ)
system.mem_ctrls1.actBackEnergy::1        13383633060                       # Energy for active background per rank (pJ)
system.mem_ctrls1.preBackEnergy::0        10993995000                       # Energy for precharge background per rank (pJ)
system.mem_ctrls1.preBackEnergy::1        11581522500                       # Energy for precharge background per rank (pJ)
system.mem_ctrls1.totalEnergy::0          28184278020                       # Total energy per rank (pJ)
system.mem_ctrls1.totalEnergy::1          28074230685                       # Total energy per rank (pJ)
system.mem_ctrls1.averagePower::0          725.104709                       # Core power per rank (mW)
system.mem_ctrls1.averagePower::1          722.273491                       # Core power per rank (mW)
system.mem_ctrls2.bytes_read::ruby.dir_cntrl2      4566720                       # Number of bytes read from this memory
system.mem_ctrls2.bytes_read::total           4566720                       # Number of bytes read from this memory
system.mem_ctrls2.bytes_written::ruby.dir_cntrl2      2748160                       # Number of bytes written to this memory
system.mem_ctrls2.bytes_written::total        2748160                       # Number of bytes written to this memory
system.mem_ctrls2.num_reads::ruby.dir_cntrl2        71355                       # Number of read requests responded to by this memory
system.mem_ctrls2.num_reads::total              71355                       # Number of read requests responded to by this memory
system.mem_ctrls2.num_writes::ruby.dir_cntrl2        42940                       # Number of write requests responded to by this memory
system.mem_ctrls2.num_writes::total             42940                       # Number of write requests responded to by this memory
system.mem_ctrls2.bw_read::ruby.dir_cntrl2    117470161                       # Total read bandwidth from this memory (bytes/s)
system.mem_ctrls2.bw_read::total            117470161                       # Total read bandwidth from this memory (bytes/s)
system.mem_ctrls2.bw_write::ruby.dir_cntrl2     70691174                       # Write bandwidth from this memory (bytes/s)
system.mem_ctrls2.bw_write::total            70691174                       # Write bandwidth from this memory (bytes/s)
system.mem_ctrls2.bw_total::ruby.dir_cntrl2    188161335                       # Total bandwidth to/from this memory (bytes/s)
system.mem_ctrls2.bw_total::total           188161335                       # Total bandwidth to/from this memory (bytes/s)
system.mem_ctrls2.readReqs                      71355                       # Number of read requests accepted
system.mem_ctrls2.writeReqs                     42940                       # Number of write requests accepted
system.mem_ctrls2.readBursts                    71355                       # Number of DRAM read bursts, including those serviced by the write queue
system.mem_ctrls2.writeBursts                   42940                       # Number of DRAM write bursts, including those merged in the write queue
system.mem_ctrls2.bytesReadDRAM               4565632                       # Total number of bytes read from DRAM
system.mem_ctrls2.bytesReadWrQ                   1088                       # Total number of bytes read from write queue
system.mem_ctrls2.bytesWritten                2748096                       # Total number of bytes written to DRAM
system.mem_ctrls2.bytesReadSys                4566720                       # Total read bytes from the system interface side
system.mem_ctrls2.bytesWrittenSys             2748160                       # Total written bytes from the system interface side
system.mem_ctrls2.servicedByWrQ                    17                       # Number of DRAM read bursts serviced by the write queue
system.mem_ctrls2.mergedWrBursts                    0                       # Number of DRAM write bursts merged with an existing one
system.mem_ctrls2.neitherReadNorWriteReqs            0                       # Number of requests that are neither read nor write
system.mem_ctrls2.perBankRdBursts::0             4292                       # Per bank write bursts
system.mem_ctrls2.perBankRdBursts::1             4781                       # Per bank write bursts
system.mem_ctrls2.perBankRdBursts::2             4434                       # Per bank write bursts
system.mem_ctrls2.perBankRdBursts::3             4798                       # Per bank write bursts
system.mem_ctrls2.perBankRdBursts::4             4535                       # Per bank write bursts
system.mem_ctrls2.perBankRdBursts::5             4626                       # Per bank write bursts
system.mem_ctrls2.perBankRdBursts::6             4419                       # Per bank write bursts
system.mem_ctrls2.perBankRdBursts::7             4419                       # Per bank write bursts
system.mem_ctrls2.perBankRdBursts::8             4356                       # Per bank write bursts
system.mem_ctrls2.perBankRdBursts::9             4653                       # Per bank write bursts
system.mem_ctrls2.perBankRdBursts::10            4395                       # Per bank write bursts
system.mem_ctrls2.perBankRdBursts::11            4651                       # Per bank write bursts
system.mem_ctrls2.perBankRdBursts::12            4240                       # Per bank write bursts
system.mem_ctrls2.perBankRdBursts::13            4073                       # Per bank write bursts
system.mem_ctrls2.perBankRdBursts::14            4263                       # Per bank write bursts
system.mem_ctrls2.perBankRdBursts::15            4403                       # Per bank write bursts
system.mem_ctrls2.perBankWrBursts::0             2703                       # Per bank write bursts
system.mem_ctrls2.perBankWrBursts::1             2712                       # Per bank write bursts
system.mem_ctrls2.perBankWrBursts::2             2688                       # Per bank write bursts
system.mem_ctrls2.perBankWrBursts::3             2789                       # Per bank write bursts
system.mem_ctrls2.perBankWrBursts::4             2697                       # Per bank write bursts
system.mem_ctrls2.perBankWrBursts::5             2822                       # Per bank write bursts
system.mem_ctrls2.perBankWrBursts::6             2646                       # Per bank write bursts
system.mem_ctrls2.perBankWrBursts::7             2734                       # Per bank write bursts
system.mem_ctrls2.perBankWrBursts::8             2629                       # Per bank write bursts
system.mem_ctrls2.perBankWrBursts::9             2811                       # Per bank write bursts
system.mem_ctrls2.perBankWrBursts::10            2656                       # Per bank write bursts
system.mem_ctrls2.perBankWrBursts::11            2599                       # Per bank write bursts
system.mem_ctrls2.perBankWrBursts::12            2536                       # Per bank write bursts
system.mem_ctrls2.perBankWrBursts::13            2548                       # Per bank write bursts
system.mem_ctrls2.perBankWrBursts::14            2715                       # Per bank write bursts
system.mem_ctrls2.perBankWrBursts::15            2654                       # Per bank write bursts
system.mem_ctrls2.numRdRetry                      404                       # Number of times read queue was full causing retry
system.mem_ctrls2.numWrRetry                     2131                       # Number of times write queue was full causing retry
system.mem_ctrls2.totGap                  38875049000                       # Total gap between requests
system.mem_ctrls2.readPktSize::0                    0                       # Read request sizes (log2)
system.mem_ctrls2.readPktSize::1                    0                       # Read request sizes (log2)
system.mem_ctrls2.readPktSize::2                    0                       # Read request sizes (log2)
system.mem_ctrls2.readPktSize::3                    0                       # Read request sizes (log2)
system.mem_ctrls2.readPktSize::4                    0                       # Read request sizes (log2)
system.mem_ctrls2.readPktSize::5                    0                       # Read request sizes (log2)
system.mem_ctrls2.readPktSize::6                71355                       # Read request sizes (log2)
system.mem_ctrls2.writePktSize::0                   0                       # Write request sizes (log2)
system.mem_ctrls2.writePktSize::1                   0                       # Write request sizes (log2)
system.mem_ctrls2.writePktSize::2                   0                       # Write request sizes (log2)
system.mem_ctrls2.writePktSize::3                   0                       # Write request sizes (log2)
system.mem_ctrls2.writePktSize::4                   0                       # Write request sizes (log2)
system.mem_ctrls2.writePktSize::5                   0                       # Write request sizes (log2)
system.mem_ctrls2.writePktSize::6               42940                       # Write request sizes (log2)
system.mem_ctrls2.rdQLenPdf::0                  46207                       # What read queue length does an incoming req see
system.mem_ctrls2.rdQLenPdf::1                   5117                       # What read queue length does an incoming req see
system.mem_ctrls2.rdQLenPdf::2                   3930                       # What read queue length does an incoming req see
system.mem_ctrls2.rdQLenPdf::3                   2909                       # What read queue length does an incoming req see
system.mem_ctrls2.rdQLenPdf::4                   2134                       # What read queue length does an incoming req see
system.mem_ctrls2.rdQLenPdf::5                   1638                       # What read queue length does an incoming req see
system.mem_ctrls2.rdQLenPdf::6                   1271                       # What read queue length does an incoming req see
system.mem_ctrls2.rdQLenPdf::7                   1089                       # What read queue length does an incoming req see
system.mem_ctrls2.rdQLenPdf::8                    849                       # What read queue length does an incoming req see
system.mem_ctrls2.rdQLenPdf::9                    744                       # What read queue length does an incoming req see
system.mem_ctrls2.rdQLenPdf::10                   613                       # What read queue length does an incoming req see
system.mem_ctrls2.rdQLenPdf::11                   532                       # What read queue length does an incoming req see
system.mem_ctrls2.rdQLenPdf::12                   412                       # What read queue length does an incoming req see
system.mem_ctrls2.rdQLenPdf::13                   364                       # What read queue length does an incoming req see
system.mem_ctrls2.rdQLenPdf::14                   317                       # What read queue length does an incoming req see
system.mem_ctrls2.rdQLenPdf::15                   314                       # What read queue length does an incoming req see
system.mem_ctrls2.rdQLenPdf::16                   276                       # What read queue length does an incoming req see
system.mem_ctrls2.rdQLenPdf::17                   230                       # What read queue length does an incoming req see
system.mem_ctrls2.rdQLenPdf::18                   194                       # What read queue length does an incoming req see
system.mem_ctrls2.rdQLenPdf::19                   199                       # What read queue length does an incoming req see
system.mem_ctrls2.rdQLenPdf::20                   198                       # What read queue length does an incoming req see
system.mem_ctrls2.rdQLenPdf::21                   173                       # What read queue length does an incoming req see
system.mem_ctrls2.rdQLenPdf::22                   155                       # What read queue length does an incoming req see
system.mem_ctrls2.rdQLenPdf::23                   143                       # What read queue length does an incoming req see
system.mem_ctrls2.rdQLenPdf::24                   131                       # What read queue length does an incoming req see
system.mem_ctrls2.rdQLenPdf::25                   134                       # What read queue length does an incoming req see
system.mem_ctrls2.rdQLenPdf::26                   110                       # What read queue length does an incoming req see
system.mem_ctrls2.rdQLenPdf::27                   115                       # What read queue length does an incoming req see
system.mem_ctrls2.rdQLenPdf::28                   121                       # What read queue length does an incoming req see
system.mem_ctrls2.rdQLenPdf::29                   108                       # What read queue length does an incoming req see
system.mem_ctrls2.rdQLenPdf::30                    98                       # What read queue length does an incoming req see
system.mem_ctrls2.rdQLenPdf::31                   513                       # What read queue length does an incoming req see
system.mem_ctrls2.wrQLenPdf::0                   7471                       # What write queue length does an incoming req see
system.mem_ctrls2.wrQLenPdf::1                   7694                       # What write queue length does an incoming req see
system.mem_ctrls2.wrQLenPdf::2                   7803                       # What write queue length does an incoming req see
system.mem_ctrls2.wrQLenPdf::3                   7910                       # What write queue length does an incoming req see
system.mem_ctrls2.wrQLenPdf::4                   7986                       # What write queue length does an incoming req see
system.mem_ctrls2.wrQLenPdf::5                    722                       # What write queue length does an incoming req see
system.mem_ctrls2.wrQLenPdf::6                    650                       # What write queue length does an incoming req see
system.mem_ctrls2.wrQLenPdf::7                   2704                       # What write queue length does an incoming req see
system.mem_ctrls2.bytesPerActivate::samples        28649                       # Bytes accessed per row activation
system.mem_ctrls2.bytesPerActivate::mean   255.269503                       # Bytes accessed per row activation
system.mem_ctrls2.bytesPerActivate::gmean   176.144210                       # Bytes accessed per row activation
system.mem_ctrls2.bytesPerActivate::stdev   239.441373                       # Bytes accessed per row activation
system.mem_ctrls2.bytesPerActivate::0-127         9289     32.42%     32.42% # Bytes accessed per row activation
system.mem_ctrls2.bytesPerActivate::128-255         6626     23.13%     55.55% # Bytes accessed per row activation
system.mem_ctrls2.bytesPerActivate::256-383         8151     28.45%     84.00% # Bytes accessed per row activation
system.mem_ctrls2.bytesPerActivate::384-511         1127      3.93%     87.94% # Bytes accessed per row activation
system.mem_ctrls2.bytesPerActivate::512-639          783      2.73%     90.67% # Bytes accessed per row activation
system.mem_ctrls2.bytesPerActivate::640-767          635      2.22%     92.89% # Bytes accessed per row activation
system.mem_ctrls2.bytesPerActivate::768-895          496      1.73%     94.62% # Bytes accessed per row activation
system.mem_ctrls2.bytesPerActivate::896-1023          406      1.42%     96.03% # Bytes accessed per row activation
system.mem_ctrls2.bytesPerActivate::1024-1151         1136      3.97%    100.00% # Bytes accessed per row activation
system.mem_ctrls2.bytesPerActivate::total        28649                       # Bytes accessed per row activation
system.mem_ctrls2.rdPerTurnAround::samples         7681                       # Reads before turning the bus around for writes
system.mem_ctrls2.rdPerTurnAround::mean      9.285249                       # Reads before turning the bus around for writes
system.mem_ctrls2.rdPerTurnAround::stdev    37.390451                       # Reads before turning the bus around for writes
system.mem_ctrls2.rdPerTurnAround::0-127         7676     99.93%     99.93% # Reads before turning the bus around for writes
system.mem_ctrls2.rdPerTurnAround::128-255            3      0.04%     99.97% # Reads before turning the bus around for writes
system.mem_ctrls2.rdPerTurnAround::1152-1279            1      0.01%     99.99% # Reads before turning the bus around for writes
system.mem_ctrls2.rdPerTurnAround::2816-2943            1      0.01%    100.00% # Reads before turning the bus around for writes
system.mem_ctrls2.rdPerTurnAround::total         7681                       # Reads before turning the bus around for writes
system.mem_ctrls2.wrPerTurnAround::samples         7681                       # Writes before turning the bus around for reads
system.mem_ctrls2.wrPerTurnAround::mean      5.590288                       # Writes before turning the bus around for reads
system.mem_ctrls2.wrPerTurnAround::gmean     5.366016                       # Writes before turning the bus around for reads
system.mem_ctrls2.wrPerTurnAround::stdev     2.189988                       # Writes before turning the bus around for reads
system.mem_ctrls2.wrPerTurnAround::4-7           7192     93.63%     93.63% # Writes before turning the bus around for reads
system.mem_ctrls2.wrPerTurnAround::8-11           142      1.85%     95.48% # Writes before turning the bus around for reads
system.mem_ctrls2.wrPerTurnAround::12-15          118      1.54%     97.02% # Writes before turning the bus around for reads
system.mem_ctrls2.wrPerTurnAround::16-19          229      2.98%    100.00% # Writes before turning the bus around for reads
system.mem_ctrls2.wrPerTurnAround::total         7681                       # Writes before turning the bus around for reads
system.mem_ctrls2.totQLat                  2867462598                       # Total ticks spent queuing
system.mem_ctrls2.totMemAccLat             4205050098                       # Total ticks spent from burst creation until serviced by the DRAM
system.mem_ctrls2.totBusLat                 356690000                       # Total ticks spent in databus transfers
system.mem_ctrls2.avgQLat                    40195.44                       # Average queueing delay per DRAM burst
system.mem_ctrls2.avgBusLat                   5000.00                       # Average bus latency per DRAM burst
system.mem_ctrls2.avgMemAccLat               58945.44                       # Average memory access latency per DRAM burst
system.mem_ctrls2.avgRdBW                      117.44                       # Average DRAM read bandwidth in MiByte/s
system.mem_ctrls2.avgWrBW                       70.69                       # Average achieved write bandwidth in MiByte/s
system.mem_ctrls2.avgRdBWSys                   117.47                       # Average system read bandwidth in MiByte/s
system.mem_ctrls2.avgWrBWSys                    70.69                       # Average system write bandwidth in MiByte/s
system.mem_ctrls2.peakBW                     12800.00                       # Theoretical peak bandwidth in MiByte/s
system.mem_ctrls2.busUtil                        1.47                       # Data bus utilization in percentage
system.mem_ctrls2.busUtilRead                    0.92                       # Data bus utilization in percentage for reads
system.mem_ctrls2.busUtilWrite                   0.55                       # Data bus utilization in percentage for writes
system.mem_ctrls2.avgRdQLen                      1.10                       # Average read queue length when enqueuing
system.mem_ctrls2.avgWrQLen                      2.88                       # Average write queue length when enqueuing
system.mem_ctrls2.readRowHits                   55723                       # Number of row buffer hits during reads
system.mem_ctrls2.writeRowHits                  29901                       # Number of row buffer hits during writes
system.mem_ctrls2.readRowHitRate                78.11                       # Row buffer hit rate for reads
system.mem_ctrls2.writeRowHitRate               69.63                       # Row buffer hit rate for writes
system.mem_ctrls2.avgGap                    340129.04                       # Average gap between requests
system.mem_ctrls2.pageHitRate                   74.93                       # Row buffer hit rate, read and write combined
system.mem_ctrls2.memoryStateTime::IDLE   10523326500                       # Time in different power states
system.mem_ctrls2.memoryStateTime::REF     1297920000                       # Time in different power states
system.mem_ctrls2.memoryStateTime::PRE_PDN            0                       # Time in different power states
system.mem_ctrls2.memoryStateTime::ACT    27048009250                       # Time in different power states
system.mem_ctrls2.memoryStateTime::ACT_PDN            0                       # Time in different power states
system.mem_ctrls2.actEnergy::0              112855680                       # Energy for activate commands per rank (pJ)
system.mem_ctrls2.actEnergy::1              103640040                       # Energy for activate commands per rank (pJ)
system.mem_ctrls2.preEnergy::0               61578000                       # Energy for precharge commands per rank (pJ)
system.mem_ctrls2.preEnergy::1               56549625                       # Energy for precharge commands per rank (pJ)
system.mem_ctrls2.readEnergy::0             282804600                       # Energy for read commands per rank (pJ)
system.mem_ctrls2.readEnergy::1             273195000                       # Energy for read commands per rank (pJ)
system.mem_ctrls2.writeEnergy::0            141147360                       # Energy for write commands per rank (pJ)
system.mem_ctrls2.writeEnergy::1            137032560                       # Energy for write commands per rank (pJ)
system.mem_ctrls2.refreshEnergy::0         2538731520                       # Energy for refresh commands per rank (pJ)
system.mem_ctrls2.refreshEnergy::1         2538731520                       # Energy for refresh commands per rank (pJ)
system.mem_ctrls2.actBackEnergy::0        14109376725                       # Energy for active background per rank (pJ)
system.mem_ctrls2.actBackEnergy::1        13456365345                       # Energy for active background per rank (pJ)
system.mem_ctrls2.preBackEnergy::0        10944899250                       # Energy for precharge background per rank (pJ)
system.mem_ctrls2.preBackEnergy::1        11517716250                       # Energy for precharge background per rank (pJ)
system.mem_ctrls2.totalEnergy::0          28191393135                       # Total energy per rank (pJ)
system.mem_ctrls2.totalEnergy::1          28083230340                       # Total energy per rank (pJ)
system.mem_ctrls2.averagePower::0          725.287948                       # Core power per rank (mW)
system.mem_ctrls2.averagePower::1          722.505213                       # Core power per rank (mW)
system.mem_ctrls3.bytes_read::ruby.dir_cntrl3      4548544                       # Number of bytes read from this memory
system.mem_ctrls3.bytes_read::total           4548544                       # Number of bytes read from this memory
system.mem_ctrls3.bytes_written::ruby.dir_cntrl3      2743616                       # Number of bytes written to this memory
system.mem_ctrls3.bytes_written::total        2743616                       # Number of bytes written to this memory
system.mem_ctrls3.num_reads::ruby.dir_cntrl3        71071                       # Number of read requests responded to by this memory
system.mem_ctrls3.num_reads::total              71071                       # Number of read requests responded to by this memory
system.mem_ctrls3.num_writes::ruby.dir_cntrl3        42869                       # Number of write requests responded to by this memory
system.mem_ctrls3.num_writes::total             42869                       # Number of write requests responded to by this memory
system.mem_ctrls3.bw_read::ruby.dir_cntrl3    117002618                       # Total read bandwidth from this memory (bytes/s)
system.mem_ctrls3.bw_read::total            117002618                       # Total read bandwidth from this memory (bytes/s)
system.mem_ctrls3.bw_write::ruby.dir_cntrl3     70574288                       # Write bandwidth from this memory (bytes/s)
system.mem_ctrls3.bw_write::total            70574288                       # Write bandwidth from this memory (bytes/s)
system.mem_ctrls3.bw_total::ruby.dir_cntrl3    187576906                       # Total bandwidth to/from this memory (bytes/s)
system.mem_ctrls3.bw_total::total           187576906                       # Total bandwidth to/from this memory (bytes/s)
system.mem_ctrls3.readReqs                      71072                       # Number of read requests accepted
system.mem_ctrls3.writeReqs                     42869                       # Number of write requests accepted
system.mem_ctrls3.readBursts                    71072                       # Number of DRAM read bursts, including those serviced by the write queue
system.mem_ctrls3.writeBursts                   42869                       # Number of DRAM write bursts, including those merged in the write queue
system.mem_ctrls3.bytesReadDRAM               4548160                       # Total number of bytes read from DRAM
system.mem_ctrls3.bytesReadWrQ                    448                       # Total number of bytes read from write queue
system.mem_ctrls3.bytesWritten                2743360                       # Total number of bytes written to DRAM
system.mem_ctrls3.bytesReadSys                4548608                       # Total read bytes from the system interface side
system.mem_ctrls3.bytesWrittenSys             2743616                       # Total written bytes from the system interface side
system.mem_ctrls3.servicedByWrQ                     7                       # Number of DRAM read bursts serviced by the write queue
system.mem_ctrls3.mergedWrBursts                    0                       # Number of DRAM write bursts merged with an existing one
system.mem_ctrls3.neitherReadNorWriteReqs            0                       # Number of requests that are neither read nor write
system.mem_ctrls3.perBankRdBursts::0             4281                       # Per bank write bursts
system.mem_ctrls3.perBankRdBursts::1             4737                       # Per bank write bursts
system.mem_ctrls3.perBankRdBursts::2             4407                       # Per bank write bursts
system.mem_ctrls3.perBankRdBursts::3             4759                       # Per bank write bursts
system.mem_ctrls3.perBankRdBursts::4             4487                       # Per bank write bursts
system.mem_ctrls3.perBankRdBursts::5             4595                       # Per bank write bursts
system.mem_ctrls3.perBankRdBursts::6             4405                       # Per bank write bursts
system.mem_ctrls3.perBankRdBursts::7             4417                       # Per bank write bursts
system.mem_ctrls3.perBankRdBursts::8             4365                       # Per bank write bursts
system.mem_ctrls3.perBankRdBursts::9             4633                       # Per bank write bursts
system.mem_ctrls3.perBankRdBursts::10            4406                       # Per bank write bursts
system.mem_ctrls3.perBankRdBursts::11            4620                       # Per bank write bursts
system.mem_ctrls3.perBankRdBursts::12            4224                       # Per bank write bursts
system.mem_ctrls3.perBankRdBursts::13            4052                       # Per bank write bursts
system.mem_ctrls3.perBankRdBursts::14            4276                       # Per bank write bursts
system.mem_ctrls3.perBankRdBursts::15            4401                       # Per bank write bursts
system.mem_ctrls3.perBankWrBursts::0             2708                       # Per bank write bursts
system.mem_ctrls3.perBankWrBursts::1             2700                       # Per bank write bursts
system.mem_ctrls3.perBankWrBursts::2             2689                       # Per bank write bursts
system.mem_ctrls3.perBankWrBursts::3             2773                       # Per bank write bursts
system.mem_ctrls3.perBankWrBursts::4             2690                       # Per bank write bursts
system.mem_ctrls3.perBankWrBursts::5             2815                       # Per bank write bursts
system.mem_ctrls3.perBankWrBursts::6             2639                       # Per bank write bursts
system.mem_ctrls3.perBankWrBursts::7             2726                       # Per bank write bursts
system.mem_ctrls3.perBankWrBursts::8             2625                       # Per bank write bursts
system.mem_ctrls3.perBankWrBursts::9             2804                       # Per bank write bursts
system.mem_ctrls3.perBankWrBursts::10            2651                       # Per bank write bursts
system.mem_ctrls3.perBankWrBursts::11            2605                       # Per bank write bursts
system.mem_ctrls3.perBankWrBursts::12            2530                       # Per bank write bursts
system.mem_ctrls3.perBankWrBursts::13            2555                       # Per bank write bursts
system.mem_ctrls3.perBankWrBursts::14            2707                       # Per bank write bursts
system.mem_ctrls3.perBankWrBursts::15            2648                       # Per bank write bursts
system.mem_ctrls3.numRdRetry                      420                       # Number of times read queue was full causing retry
system.mem_ctrls3.numWrRetry                     2417                       # Number of times write queue was full causing retry
system.mem_ctrls3.totGap                  38874832000                       # Total gap between requests
system.mem_ctrls3.readPktSize::0                    0                       # Read request sizes (log2)
system.mem_ctrls3.readPktSize::1                    0                       # Read request sizes (log2)
system.mem_ctrls3.readPktSize::2                    0                       # Read request sizes (log2)
system.mem_ctrls3.readPktSize::3                    0                       # Read request sizes (log2)
system.mem_ctrls3.readPktSize::4                    0                       # Read request sizes (log2)
system.mem_ctrls3.readPktSize::5                    0                       # Read request sizes (log2)
system.mem_ctrls3.readPktSize::6                71072                       # Read request sizes (log2)
system.mem_ctrls3.writePktSize::0                   0                       # Write request sizes (log2)
system.mem_ctrls3.writePktSize::1                   0                       # Write request sizes (log2)
system.mem_ctrls3.writePktSize::2                   0                       # Write request sizes (log2)
system.mem_ctrls3.writePktSize::3                   0                       # Write request sizes (log2)
system.mem_ctrls3.writePktSize::4                   0                       # Write request sizes (log2)
system.mem_ctrls3.writePktSize::5                   0                       # Write request sizes (log2)
system.mem_ctrls3.writePktSize::6               42869                       # Write request sizes (log2)
system.mem_ctrls3.rdQLenPdf::0                  45586                       # What read queue length does an incoming req see
system.mem_ctrls3.rdQLenPdf::1                   4464                       # What read queue length does an incoming req see
system.mem_ctrls3.rdQLenPdf::2                   3544                       # What read queue length does an incoming req see
system.mem_ctrls3.rdQLenPdf::3                   2899                       # What read queue length does an incoming req see
system.mem_ctrls3.rdQLenPdf::4                   2302                       # What read queue length does an incoming req see
system.mem_ctrls3.rdQLenPdf::5                   1875                       # What read queue length does an incoming req see
system.mem_ctrls3.rdQLenPdf::6                   1423                       # What read queue length does an incoming req see
system.mem_ctrls3.rdQLenPdf::7                   1195                       # What read queue length does an incoming req see
system.mem_ctrls3.rdQLenPdf::8                    983                       # What read queue length does an incoming req see
system.mem_ctrls3.rdQLenPdf::9                    808                       # What read queue length does an incoming req see
system.mem_ctrls3.rdQLenPdf::10                   678                       # What read queue length does an incoming req see
system.mem_ctrls3.rdQLenPdf::11                   609                       # What read queue length does an incoming req see
system.mem_ctrls3.rdQLenPdf::12                   506                       # What read queue length does an incoming req see
system.mem_ctrls3.rdQLenPdf::13                   437                       # What read queue length does an incoming req see
system.mem_ctrls3.rdQLenPdf::14                   364                       # What read queue length does an incoming req see
system.mem_ctrls3.rdQLenPdf::15                   312                       # What read queue length does an incoming req see
system.mem_ctrls3.rdQLenPdf::16                   292                       # What read queue length does an incoming req see
system.mem_ctrls3.rdQLenPdf::17                   284                       # What read queue length does an incoming req see
system.mem_ctrls3.rdQLenPdf::18                   259                       # What read queue length does an incoming req see
system.mem_ctrls3.rdQLenPdf::19                   202                       # What read queue length does an incoming req see
system.mem_ctrls3.rdQLenPdf::20                   179                       # What read queue length does an incoming req see
system.mem_ctrls3.rdQLenPdf::21                   146                       # What read queue length does an incoming req see
system.mem_ctrls3.rdQLenPdf::22                   149                       # What read queue length does an incoming req see
system.mem_ctrls3.rdQLenPdf::23                   143                       # What read queue length does an incoming req see
system.mem_ctrls3.rdQLenPdf::24                   138                       # What read queue length does an incoming req see
[...]
system.ruby.L2Cache_Controller.ISS.Mem_Data::total       124026                      
system.ruby.L2Cache_Controller.IS.Mem_Data |         398      3.22%      3.22% |         358      2.90%      6.12% |         375      3.04%      9.15% |         371      3.00%     12.16% |         378      3.06%     15.22% |         365      2.95%     18.17% |         379      3.07%     21.24% |         386      3.12%     24.36% |         373      3.02%     27.38% |         383      3.10%     30.48% |         407      3.29%     33.78% |         404      3.27%     37.05% |         412      3.33%     40.38% |         407      3.29%     43.68% |         408      3.30%     46.98% |         405      3.28%     50.26% |         415      3.36%     53.62% |         390      3.16%     56.78% |         388      3.14%     59.92% |         370      2.99%     62.91% |         364      2.95%     65.86% |         370      2.99%     68.85% |         369      2.99%     71.84% |         367      2.97%     74.81% |         395      3.20%     78.01% |         406      3.29%     81.29% |         412      3.33%     84.63% |         379      3.07%     87.70% |         382      3.09%     90.79% |         382      3.09%     93.88% |         384      3.11%     96.99% |         372      3.01%    100.00%
system.ruby.L2Cache_Controller.IS.Mem_Data::total        12354                      
system.ruby.L2Cache_Controller.IM.L1_GETX |           1    100.00%    100.00% |           0      0.00%    100.00% |           0      0.00%    100.00% |           0      0.00%    100.00% |           0      0.00%    100.00% |           0      0.00%    100.00% |           0      0.00%    100.00% |           0      0.00%    100.00% |           0      0.00%    100.00% |           0      0.00%    100.00% |           0      0.00%    100.00% |           0      0.00%    100.00% |           0      0.00%    100.00% |           0      0.00%    100.00% |           0      0.00%    100.00% |           0      0.00%    100.00% |           0      0.00%    100.00% |           0      0.00%    100.00% |           0      0.00%    100.00% |           0      0.00%    100.00% |           0      0.00%    100.00% |           0      0.00%    100.00% |           0      0.00%    100.00% |           0      0.00%    100.00% |           0      0.00%    100.00% |           0      0.00%    100.00% |           0      0.00%    100.00% |           0      0.00%    100.00% |           0      0.00%    100.00% |           0      0.00%    100.00% |           0      0.00%    100.00% |           0      0.00%    100.00%
system.ruby.L2Cache_Controller.IM.L1_GETX::total            1                      
system.ruby.L2Cache_Controller.IM.Mem_Data |        4705      3.12%      3.12% |        4697      3.12%      6.24% |        4706      3.12%      9.37% |        4713      3.13%     12.50% |        4704      3.12%     15.62% |        4711      3.13%     18.75% |        4710      3.13%     21.88% |        4694      3.12%     24.99% |        4710      3.13%     28.12% |        4711      3.13%     31.25% |        4696      3.12%     34.37% |        4715      3.13%     37.50% |        4700      3.12%     40.62% |        4703      3.12%     43.74% |        4702      3.12%     46.86% |        4698      3.12%     49.98% |        4716      3.13%     53.12% |        4710      3.13%     56.24% |        4712      3.13%     59.37% |        4706      3.12%     62.50% |        4709      3.13%     65.62% |        4722      3.14%     68.76% |        4701      3.12%     71.88% |        4707      3.13%     75.01% |        4720      3.13%     78.14% |        4710      3.13%     81.27% |        4716      3.13%     84.40% |        4702      3.12%     87.52% |        4703      3.12%     90.64% |        4699      3.12%     93.76% |        4703      3.12%     96.89% |        4688      3.11%    100.00%
system.ruby.L2Cache_Controller.IM.Mem_Data::total       150599                      
system.ruby.L2Cache_Controller.SS_MB.Exclusive_Unblock |           3      6.82%      6.82% |           6     13.64%     20.45% |           3      6.82%     27.27% |           4      9.09%     36.36% |           0      0.00%     36.36% |           0      0.00%     36.36% |           0      0.00%     36.36% |           0      0.00%     36.36% |           0      0.00%     36.36% |           0      0.00%     36.36% |           0      0.00%     36.36% |           0      0.00%     36.36% |           3      6.82%     43.18% |           0      0.00%     43.18% |           4      9.09%     52.27% |           0      0.00%     52.27% |           1      2.27%     54.55% |           0      0.00%     54.55% |          11     25.00%     79.55% |           2      4.55%     84.09% |           0      0.00%     84.09% |           1      2.27%     86.36% |           0      0.00%     86.36% |           1      2.27%     88.64% |           1      2.27%     90.91% |           0      0.00%     90.91% |           1      2.27%     93.18% |           2      4.55%     97.73% |           1      2.27%    100.00% |           0      0.00%    100.00% |           0      0.00%    100.00% |           0      0.00%    100.00%
system.ruby.L2Cache_Controller.SS_MB.Exclusive_Unblock::total           44                      
system.ruby.L2Cache_Controller.MT_MB.Exclusive_Unblock |       60405     12.23%     12.23% |       15538      3.15%     15.38% |       12747      2.58%     17.96% |       14800      3.00%     20.95% |       13335      2.70%     23.65% |       12717      2.57%     26.23% |       12241      2.48%     28.71% |       12902      2.61%     31.32% |       13096      2.65%     33.97% |       12757      2.58%     36.55% |       15512      3.14%     39.69% |       15760      3.19%     42.89% |       14128      2.86%     45.75% |       13215      2.68%     48.42% |       11999      2.43%     50.85% |       12462      2.52%     53.37% |       13973      2.83%     56.20% |       12805      2.59%     58.80% |       13229      2.68%     61.47% |       14224      2.88%     64.35% |       14902      3.02%     67.37% |       15878      3.21%     70.59% |       13722      2.78%     73.37% |       13754      2.78%     76.15% |       13836      2.80%     78.95% |       13398      2.71%     81.66% |       13249      2.68%     84.35% |       12958      2.62%     86.97% |       15563      3.15%     90.12% |       13986      2.83%     92.95% |       16358      3.31%     96.27% |       18447      3.73%    100.00%
system.ruby.L2Cache_Controller.MT_MB.Exclusive_Unblock::total       493896                      
system.ruby.L2Cache_Controller.MT_IIB.L1_PUTX |           0      0.00%      0.00% |           0      0.00%      0.00% |           0      0.00%      0.00% |           0      0.00%      0.00% |           0      0.00%      0.00% |           0      0.00%      0.00% |           0      0.00%      0.00% |           0      0.00%      0.00% |           0      0.00%      0.00% |           0      0.00%      0.00% |           0      0.00%      0.00% |           0      0.00%      0.00% |           0      0.00%      0.00% |           0      0.00%      0.00% |           0      0.00%      0.00% |           0      0.00%      0.00% |           2    100.00%    100.00% |           0      0.00%    100.00% |           0      0.00%    100.00% |           0      0.00%    100.00% |           0      0.00%    100.00% |           0      0.00%    100.00% |           0      0.00%    100.00% |           0      0.00%    100.00% |           0      0.00%    100.00% |           0      0.00%    100.00% |           0      0.00%    100.00% |           0      0.00%    100.00% |           0      0.00%    100.00% |           0      0.00%    100.00% |           0      0.00%    100.00% |           0      0.00%    100.00%
system.ruby.L2Cache_Controller.MT_IIB.L1_PUTX::total            2                      
system.ruby.L2Cache_Controller.MT_IIB.WB_Data |           0      0.00%      0.00% |           1     20.00%     20.00% |           1     20.00%     40.00% |           1     20.00%     60.00% |           0      0.00%     60.00% |           0      0.00%     60.00% |           1     20.00%     80.00% |           0      0.00%     80.00% |           0      0.00%     80.00% |           1     20.00%    100.00% |           0      0.00%    100.00% |           0      0.00%    100.00% |           0      0.00%    100.00% |           0      0.00%    100.00% |           0      0.00%    100.00% |           0      0.00%    100.00% |           0      0.00%    100.00% |           0      0.00%    100.00% |           0      0.00%    100.00% |           0      0.00%    100.00% |           0      0.00%    100.00% |           0      0.00%    100.00% |           0      0.00%    100.00% |           0      0.00%    100.00% |           0      0.00%    100.00% |           0      0.00%    100.00% |           0      0.00%    100.00% |           0      0.00%    100.00% |           0      0.00%    100.00% |           0      0.00%    100.00% |           0      0.00%    100.00% |           0      0.00%    100.00%
system.ruby.L2Cache_Controller.MT_IIB.WB_Data::total            5                      
system.ruby.L2Cache_Controller.MT_IIB.WB_Data_clean |        3015     50.63%     50.63% |           0      0.00%     50.63% |           0      0.00%     50.63% |           0      0.00%     50.63% |           0      0.00%     50.63% |           0      0.00%     50.63% |           0      0.00%     50.63% |           0      0.00%     50.63% |           0      0.00%     50.63% |           0      0.00%     50.63% |           0      0.00%     50.63% |           0      0.00%     50.63% |           0      0.00%     50.63% |           0      0.00%     50.63% |           0      0.00%     50.63% |           0      0.00%     50.63% |        2940     49.37%    100.00% |           0      0.00%    100.00% |           0      0.00%    100.00% |           0      0.00%    100.00% |           0      0.00%    100.00% |           0      0.00%    100.00% |           0      0.00%    100.00% |           0      0.00%    100.00% |           0      0.00%    100.00% |           0      0.00%    100.00% |           0      0.00%    100.00% |           0      0.00%    100.00% |           0      0.00%    100.00% |           0      0.00%    100.00% |           0      0.00%    100.00% |           0      0.00%    100.00%
system.ruby.L2Cache_Controller.MT_IIB.WB_Data_clean::total         5955                      
system.ruby.L2Cache_Controller.MT_IIB.Unblock |          49     27.84%     27.84% |           0      0.00%     27.84% |           0      0.00%     27.84% |           0      0.00%     27.84% |           0      0.00%     27.84% |           0      0.00%     27.84% |           0      0.00%     27.84% |           0      0.00%     27.84% |           0      0.00%     27.84% |           0      0.00%     27.84% |           0      0.00%     27.84% |           0      0.00%     27.84% |           0      0.00%     27.84% |           0      0.00%     27.84% |           0      0.00%     27.84% |           0      0.00%     27.84% |         127     72.16%    100.00% |           0      0.00%    100.00% |           0      0.00%    100.00% |           0      0.00%    100.00% |           0      0.00%    100.00% |           0      0.00%    100.00% |           0      0.00%    100.00% |           0      0.00%    100.00% |           0      0.00%    100.00% |           0      0.00%    100.00% |           0      0.00%    100.00% |           0      0.00%    100.00% |           0      0.00%    100.00% |           0      0.00%    100.00% |           0      0.00%    100.00% |           0      0.00%    100.00%
system.ruby.L2Cache_Controller.MT_IIB.Unblock::total          176                      
system.ruby.L2Cache_Controller.MT_IB.WB_Data_clean |          49     27.84%     27.84% |           0      0.00%     27.84% |           0      0.00%     27.84% |           0      0.00%     27.84% |           0      0.00%     27.84% |           0      0.00%     27.84% |           0      0.00%     27.84% |           0      0.00%     27.84% |           0      0.00%     27.84% |           0      0.00%     27.84% |           0      0.00%     27.84% |           0      0.00%     27.84% |           0      0.00%     27.84% |           0      0.00%     27.84% |           0      0.00%     27.84% |           0      0.00%     27.84% |         127     72.16%    100.00% |           0      0.00%    100.00% |           0      0.00%    100.00% |           0      0.00%    100.00% |           0      0.00%    100.00% |           0      0.00%    100.00% |           0      0.00%    100.00% |           0      0.00%    100.00% |           0      0.00%    100.00% |           0      0.00%    100.00% |           0      0.00%    100.00% |           0      0.00%    100.00% |           0      0.00%    100.00% |           0      0.00%    100.00% |           0      0.00%    100.00% |           0      0.00%    100.00%
system.ruby.L2Cache_Controller.MT_IB.WB_Data_clean::total          176                      
system.ruby.L2Cache_Controller.MT_SB.Unblock |        3015     50.59%     50.59% |           1      0.02%     50.60% |           1      0.02%     50.62% |           1      0.02%     50.64% |           0      0.00%     50.64% |           0      0.00%     50.64% |           1      0.02%     50.65% |           0      0.00%     50.65% |           0      0.00%     50.65% |           1      0.02%     50.67% |           0      0.00%     50.67% |           0      0.00%     50.67% |           0      0.00%     50.67% |           0      0.00%     50.67% |           0      0.00%     50.67% |           0      0.00%     50.67% |        2940     49.33%    100.00% |           0      0.00%    100.00% |           0      0.00%    100.00% |           0      0.00%    100.00% |           0      0.00%    100.00% |           0      0.00%    100.00% |           0      0.00%    100.00% |           0      0.00%    100.00% |           0      0.00%    100.00% |           0      0.00%    100.00% |           0      0.00%    100.00% |           0      0.00%    100.00% |           0      0.00%    100.00% |           0      0.00%    100.00% |           0      0.00%    100.00% |           0      0.00%    100.00%
system.ruby.L2Cache_Controller.MT_SB.Unblock::total         5960                      
system.ruby.SimicsNetworkPortInterface_Controller.MessageSend |       24080     11.56%     11.56% |      104183     50.00%     61.56% |        9910      4.76%     66.31% |       10241      4.91%     71.23% |        9808      4.71%     75.93% |       10364      4.97%     80.91% |        9922      4.76%     85.67% |       10261      4.92%     90.59% |       10110      4.85%     95.45% |        9487      4.55%    100.00% |           0      0.00%    100.00% |           0      0.00%    100.00% |           0      0.00%    100.00% |           0      0.00%    100.00% |           0      0.00%    100.00% |           0      0.00%    100.00% |           0      0.00%    100.00% |           0      0.00%    100.00% |           0      0.00%    100.00% |           0      0.00%    100.00% |           0      0.00%    100.00% |           0      0.00%    100.00% |           0      0.00%    100.00% |           0      0.00%    100.00% |           0      0.00%    100.00% |           0      0.00%    100.00% |           0      0.00%    100.00% |           0      0.00%    100.00% |           0      0.00%    100.00% |           0      0.00%    100.00% |           0      0.00%    100.00% |           0      0.00%    100.00%
system.ruby.SimicsNetworkPortInterface_Controller.MessageSend::total       208366                      
system.ruby.SimicsNetworkPortInterface_Controller.MessageRecv |       24080     11.56%     11.56% |      104183     50.00%     61.56% |        9910      4.76%     66.31% |       10241      4.91%     71.23% |        9808      4.71%     75.93% |       10364      4.97%     80.91% |        9922      4.76%     85.67% |       10261      4.92%     90.59% |       10110      4.85%     95.45% |        9487      4.55%    100.00% |           0      0.00%    100.00% |           0      0.00%    100.00% |           0      0.00%    100.00% |           0      0.00%    100.00% |           0      0.00%    100.00% |           0      0.00%    100.00% |           0      0.00%    100.00% |           0      0.00%    100.00% |           0      0.00%    100.00% |           0      0.00%    100.00% |           0      0.00%    100.00% |           0      0.00%    100.00% |           0      0.00%    100.00% |           0      0.00%    100.00% |           0      0.00%    100.00% |           0      0.00%    100.00% |           0      0.00%    100.00% |           0      0.00%    100.00% |           0      0.00%    100.00% |           0      0.00%    100.00% |           0      0.00%    100.00% |           0      0.00%    100.00%
system.ruby.SimicsNetworkPortInterface_Controller.MessageRecv::total       208366                      
system.ruby.SimicsNetworkPortInterface_Controller.A.MessageSend |       24080     11.56%     11.56% |      104183     50.00%     61.56% |        9910      4.76%     66.31% |       10241      4.91%     71.23% |        9808      4.71%     75.93% |       10364      4.97%     80.91% |        9922      4.76%     85.67% |       10261      4.92%     90.59% |       10110      4.85%     95.45% |        9487      4.55%    100.00% |           0      0.00%    100.00% |           0      0.00%    100.00% |           0      0.00%    100.00% |           0      0.00%    100.00% |           0      0.00%    100.00% |           0      0.00%    100.00% |           0      0.00%    100.00% |           0      0.00%    100.00% |           0      0.00%    100.00% |           0      0.00%    100.00% |           0      0.00%    100.00% |           0      0.00%    100.00% |           0      0.00%    100.00% |           0      0.00%    100.00% |           0      0.00%    100.00% |           0      0.00%    100.00% |           0      0.00%    100.00% |           0      0.00%    100.00% |           0      0.00%    100.00% |           0      0.00%    100.00% |           0      0.00%    100.00% |           0      0.00%    100.00%
system.ruby.SimicsNetworkPortInterface_Controller.A.MessageSend::total       208366                      
system.ruby.SimicsNetworkPortInterface_Controller.A.MessageRecv |       24080     11.56%     11.56% |      104183     50.00%     61.56% |        9910      4.76%     66.31% |       10241      4.91%     71.23% |        9808      4.71%     75.93% |       10364      4.97%     80.91% |        9922      4.76%     85.67% |       10261      4.92%     90.59% |       10110      4.85%     95.45% |        9487      4.55%    100.00% |           0      0.00%    100.00% |           0      0.00%    100.00% |           0      0.00%    100.00% |           0      0.00%    100.00% |           0      0.00%    100.00% |           0      0.00%    100.00% |           0      0.00%    100.00% |           0      0.00%    100.00% |           0      0.00%    100.00% |           0      0.00%    100.00% |           0      0.00%    100.00% |           0      0.00%    100.00% |           0      0.00%    100.00% |           0      0.00%    100.00% |           0      0.00%    100.00% |           0      0.00%    100.00% |           0      0.00%    100.00% |           0      0.00%    100.00% |           0      0.00%    100.00% |           0      0.00%    100.00% |           0      0.00%    100.00% |           0      0.00%    100.00%
system.ruby.SimicsNetworkPortInterface_Controller.A.MessageRecv::total       208366                      
system.switch_cpus.kern.inst.arm                    0                       # number of arm instructions executed
system.switch_cpus.kern.inst.quiesce                0                       # number of quiesce instructions executed

---------- End Simulation Statistics   ----------
