
---------- Begin Simulation Statistics ----------
sim_seconds                                  0.093256                       # Number of seconds simulated
sim_ticks                                 93255536500                       # Number of ticks simulated
final_tick                               5269423615000                       # Number of ticks from beginning of simulation (restored from checkpoints and never reset)
sim_freq                                 1000000000000                       # Frequency of simulated ticks
host_inst_rate                                  52203                       # Simulator instruction rate (inst/s)
host_op_rate                                    92103                       # Simulator op (including micro ops) rate (op/s)
host_tick_rate                              114542989                       # Simulator tick rate (ticks/s)
host_mem_usage                                5956068                       # Number of bytes of host memory used
host_seconds                                   814.15                       # Real time elapsed on the host
sim_insts                                    42501322                       # Number of instructions simulated
sim_ops                                      74986181                       # Number of ops (including micro ops) simulated
system.voltage_domain.voltage                       1                       # Voltage in Volts
system.clk_domain.clock                           500                       # Clock period in ticks
system.mem_ctrls0.bytes_read::ruby.dir_cntrl0     21121280                       # Number of bytes read from this memory
system.mem_ctrls0.bytes_read::total          21121280                       # Number of bytes read from this memory
system.mem_ctrls0.bytes_written::ruby.dir_cntrl0     11913216                       # Number of bytes written to this memory
system.mem_ctrls0.bytes_written::total       11913216                       # Number of bytes written to this memory
system.mem_ctrls0.num_reads::ruby.dir_cntrl0       330020                       # Number of read requests responded to by this memory
system.mem_ctrls0.num_reads::total             330020                       # Number of read requests responded to by this memory
system.mem_ctrls0.num_writes::ruby.dir_cntrl0       186144                       # Number of write requests responded to by this memory
system.mem_ctrls0.num_writes::total            186144                       # Number of write requests responded to by this memory
system.mem_ctrls0.bw_read::ruby.dir_cntrl0    226488215                       # Total read bandwidth from this memory (bytes/s)
system.mem_ctrls0.bw_read::total            226488215                       # Total read bandwidth from this memory (bytes/s)
system.mem_ctrls0.bw_write::ruby.dir_cntrl0    127748083                       # Write bandwidth from this memory (bytes/s)
system.mem_ctrls0.bw_write::total           127748083                       # Write bandwidth from this memory (bytes/s)
system.mem_ctrls0.bw_total::ruby.dir_cntrl0    354236298                       # Total bandwidth to/from this memory (bytes/s)
system.mem_ctrls0.bw_total::total           354236298                       # Total bandwidth to/from this memory (bytes/s)
system.mem_ctrls0.readReqs                     330020                       # Number of read requests accepted
system.mem_ctrls0.writeReqs                    186144                       # Number of write requests accepted
system.mem_ctrls0.readBursts                   330020                       # Number of DRAM read bursts, including those serviced by the write queue
system.mem_ctrls0.writeBursts                  186144                       # Number of DRAM write bursts, including those merged in the write queue
system.mem_ctrls0.bytesReadDRAM              21118912                       # Total number of bytes read from DRAM
system.mem_ctrls0.bytesReadWrQ                   2368                       # Total number of bytes read from write queue
system.mem_ctrls0.bytesWritten               11913088                       # Total number of bytes written to DRAM
system.mem_ctrls0.bytesReadSys               21121280                       # Total read bytes from the system interface side
system.mem_ctrls0.bytesWrittenSys            11913216                       # Total written bytes from the system interface side
system.mem_ctrls0.servicedByWrQ                    37                       # Number of DRAM read bursts serviced by the write queue
system.mem_ctrls0.mergedWrBursts                    0                       # Number of DRAM write bursts merged with an existing one
system.mem_ctrls0.neitherReadNorWriteReqs            0                       # Number of requests that are neither read nor write
system.mem_ctrls0.perBankRdBursts::0            20342                       # Per bank write bursts
system.mem_ctrls0.perBankRdBursts::1            21008                       # Per bank write bursts
system.mem_ctrls0.perBankRdBursts::2            20513                       # Per bank write bursts
system.mem_ctrls0.perBankRdBursts::3            20873                       # Per bank write bursts
system.mem_ctrls0.perBankRdBursts::4            20521                       # Per bank write bursts
system.mem_ctrls0.perBankRdBursts::5            21048                       # Per bank write bursts
system.mem_ctrls0.perBankRdBursts::6            20631                       # Per bank write bursts
system.mem_ctrls0.perBankRdBursts::7            20715                       # Per bank write bursts
system.mem_ctrls0.perBankRdBursts::8            20664                       # Per bank write bursts
system.mem_ctrls0.perBankRdBursts::9            20892                       # Per bank write bursts
system.mem_ctrls0.perBankRdBursts::10           20588                       # Per bank write bursts
system.mem_ctrls0.perBankRdBursts::11           20963                       # Per bank write bursts
system.mem_ctrls0.perBankRdBursts::12           20241                       # Per bank write bursts
system.mem_ctrls0.perBankRdBursts::13           20126                       # Per bank write bursts
system.mem_ctrls0.perBankRdBursts::14           20447                       # Per bank write bursts
system.mem_ctrls0.perBankRdBursts::15           20411                       # Per bank write bursts
system.mem_ctrls0.perBankWrBursts::0            11508                       # Per bank write bursts
system.mem_ctrls0.perBankWrBursts::1            11664                       # Per bank write bursts
system.mem_ctrls0.perBankWrBursts::2            11669                       # Per bank write bursts
system.mem_ctrls0.perBankWrBursts::3            11647                       # Per bank write bursts
system.mem_ctrls0.perBankWrBursts::4            11602                       # Per bank write bursts
system.mem_ctrls0.perBankWrBursts::5            11916                       # Per bank write bursts
system.mem_ctrls0.perBankWrBursts::6            11559                       # Per bank write bursts
system.mem_ctrls0.perBankWrBursts::7            11682                       # Per bank write bursts
system.mem_ctrls0.perBankWrBursts::8            11902                       # Per bank write bursts
system.mem_ctrls0.perBankWrBursts::9            11724                       # Per bank write bursts
system.mem_ctrls0.perBankWrBursts::10           11533                       # Per bank write bursts
system.mem_ctrls0.perBankWrBursts::11           11705                       # Per bank write bursts
system.mem_ctrls0.perBankWrBursts::12           11353                       # Per bank write bursts
system.mem_ctrls0.perBankWrBursts::13           11324                       # Per bank write bursts
system.mem_ctrls0.perBankWrBursts::14           11755                       # Per bank write bursts
system.mem_ctrls0.perBankWrBursts::15           11599                       # Per bank write bursts
system.mem_ctrls0.numRdRetry                     2823                       # Number of times read queue was full causing retry
system.mem_ctrls0.numWrRetry                     1830                       # Number of times write queue was full causing retry
system.mem_ctrls0.totGap                  93254974000                       # Total gap between requests
system.mem_ctrls0.readPktSize::0                    0                       # Read request sizes (log2)
system.mem_ctrls0.readPktSize::1                    0                       # Read request sizes (log2)
system.mem_ctrls0.readPktSize::2                    0                       # Read request sizes (log2)
system.mem_ctrls0.readPktSize::3                    0                       # Read request sizes (log2)
system.mem_ctrls0.readPktSize::4                    0                       # Read request sizes (log2)
system.mem_ctrls0.readPktSize::5                    0                       # Read request sizes (log2)
system.mem_ctrls0.readPktSize::6               330020                       # Read request sizes (log2)
system.mem_ctrls0.writePktSize::0                   0                       # Write request sizes (log2)
system.mem_ctrls0.writePktSize::1                   0                       # Write request sizes (log2)
system.mem_ctrls0.writePktSize::2                   0                       # Write request sizes (log2)
system.mem_ctrls0.writePktSize::3                   0                       # Write request sizes (log2)
system.mem_ctrls0.writePktSize::4                   0                       # Write request sizes (log2)
system.mem_ctrls0.writePktSize::5                   0                       # Write request sizes (log2)
system.mem_ctrls0.writePktSize::6              186144                       # Write request sizes (log2)
system.mem_ctrls0.rdQLenPdf::0                 158326                       # What read queue length does an incoming req see
system.mem_ctrls0.rdQLenPdf::1                  40955                       # What read queue length does an incoming req see
system.mem_ctrls0.rdQLenPdf::2                  30713                       # What read queue length does an incoming req see
system.mem_ctrls0.rdQLenPdf::3                  22119                       # What read queue length does an incoming req see
system.mem_ctrls0.rdQLenPdf::4                  16315                       # What read queue length does an incoming req see
system.mem_ctrls0.rdQLenPdf::5                  12504                       # What read queue length does an incoming req see
system.mem_ctrls0.rdQLenPdf::6                   9659                       # What read queue length does an incoming req see
system.mem_ctrls0.rdQLenPdf::7                   7326                       # What read queue length does an incoming req see
system.mem_ctrls0.rdQLenPdf::8                   5743                       # What read queue length does an incoming req see
system.mem_ctrls0.rdQLenPdf::9                   4425                       # What read queue length does an incoming req see
system.mem_ctrls0.rdQLenPdf::10                  3560                       # What read queue length does an incoming req see
system.mem_ctrls0.rdQLenPdf::11                  2683                       # What read queue length does an incoming req see
system.mem_ctrls0.rdQLenPdf::12                  2123                       # What read queue length does an incoming req see
system.mem_ctrls0.rdQLenPdf::13                  1755                       # What read queue length does an incoming req see
system.mem_ctrls0.rdQLenPdf::14                  1401                       # What read queue length does an incoming req see
system.mem_ctrls0.rdQLenPdf::15                  1130                       # What read queue length does an incoming req see
system.mem_ctrls0.rdQLenPdf::16                   949                       # What read queue length does an incoming req see
system.mem_ctrls0.rdQLenPdf::17                   804                       # What read queue length does an incoming req see
system.mem_ctrls0.rdQLenPdf::18                   683                       # What read queue length does an incoming req see
system.mem_ctrls0.rdQLenPdf::19                   580                       # What read queue length does an incoming req see
system.mem_ctrls0.rdQLenPdf::20                   471                       # What read queue length does an incoming req see
system.mem_ctrls0.rdQLenPdf::21                   378                       # What read queue length does an incoming req see
system.mem_ctrls0.rdQLenPdf::22                   346                       # What read queue length does an incoming req see
system.mem_ctrls0.rdQLenPdf::23                   284                       # What read queue length does an incoming req see
system.mem_ctrls0.rdQLenPdf::24                   264                       # What read queue length does an incoming req see
system.mem_ctrls0.rdQLenPdf::25                   217                       # What read queue length does an incoming req see
system.mem_ctrls0.rdQLenPdf::26                   207                       # What read queue length does an incoming req see
system.mem_ctrls0.rdQLenPdf::27                   188                       # What read queue length does an incoming req see
system.mem_ctrls0.rdQLenPdf::28                   192                       # What read queue length does an incoming req see
system.mem_ctrls0.rdQLenPdf::29                   207                       # What read queue length does an incoming req see
system.mem_ctrls0.rdQLenPdf::30                   248                       # What read queue length does an incoming req see
system.mem_ctrls0.rdQLenPdf::31                  3228                       # What read queue length does an incoming req see
system.mem_ctrls0.wrQLenPdf::0                  33442                       # What write queue length does an incoming req see
system.mem_ctrls0.wrQLenPdf::1                  35994                       # What write queue length does an incoming req see
system.mem_ctrls0.wrQLenPdf::2                  36544                       # What write queue length does an incoming req see
system.mem_ctrls0.wrQLenPdf::3                  36076                       # What write queue length does an incoming req see
system.mem_ctrls0.wrQLenPdf::4                  35707                       # What write queue length does an incoming req see
system.mem_ctrls0.wrQLenPdf::5                   3045                       # What write queue length does an incoming req see
system.mem_ctrls0.wrQLenPdf::6                   2113                       # What write queue length does an incoming req see
system.mem_ctrls0.wrQLenPdf::7                   3223                       # What write queue length does an incoming req see
system.mem_ctrls0.bytesPerActivate::samples       155491                       # Bytes accessed per row activation
system.mem_ctrls0.bytesPerActivate::mean   212.430970                       # Bytes accessed per row activation
system.mem_ctrls0.bytesPerActivate::gmean   159.202694                       # Bytes accessed per row activation
system.mem_ctrls0.bytesPerActivate::stdev   177.289706                       # Bytes accessed per row activation
system.mem_ctrls0.bytesPerActivate::0-127        49625     31.92%     31.92% # Bytes accessed per row activation
system.mem_ctrls0.bytesPerActivate::128-255        46084     29.64%     61.55% # Bytes accessed per row activation
system.mem_ctrls0.bytesPerActivate::256-383        43065     27.70%     89.25% # Bytes accessed per row activation
system.mem_ctrls0.bytesPerActivate::384-511         6560      4.22%     93.47% # Bytes accessed per row activation
system.mem_ctrls0.bytesPerActivate::512-639         3977      2.56%     96.03% # Bytes accessed per row activation
system.mem_ctrls0.bytesPerActivate::640-767         2085      1.34%     97.37% # Bytes accessed per row activation
system.mem_ctrls0.bytesPerActivate::768-895         1333      0.86%     98.22% # Bytes accessed per row activation
system.mem_ctrls0.bytesPerActivate::896-1023          893      0.57%     98.80% # Bytes accessed per row activation
system.mem_ctrls0.bytesPerActivate::1024-1151         1869      1.20%    100.00% # Bytes accessed per row activation
system.mem_ctrls0.bytesPerActivate::total       155491                       # Bytes accessed per row activation
system.mem_ctrls0.rdPerTurnAround::samples        33672                       # Reads before turning the bus around for writes
system.mem_ctrls0.rdPerTurnAround::mean      9.799834                       # Reads before turning the bus around for writes
system.mem_ctrls0.rdPerTurnAround::stdev    23.712521                       # Reads before turning the bus around for writes
system.mem_ctrls0.rdPerTurnAround::0-127        33665     99.98%     99.98% # Reads before turning the bus around for writes
system.mem_ctrls0.rdPerTurnAround::128-255            6      0.02%    100.00% # Reads before turning the bus around for writes
system.mem_ctrls0.rdPerTurnAround::3968-4095            1      0.00%    100.00% # Reads before turning the bus around for writes
system.mem_ctrls0.rdPerTurnAround::total        33672                       # Reads before turning the bus around for writes
system.mem_ctrls0.wrPerTurnAround::samples        33672                       # Writes before turning the bus around for reads
system.mem_ctrls0.wrPerTurnAround::mean      5.528095                       # Writes before turning the bus around for reads
system.mem_ctrls0.wrPerTurnAround::gmean     5.393176                       # Writes before turning the bus around for reads
system.mem_ctrls0.wrPerTurnAround::stdev     1.580650                       # Writes before turning the bus around for reads
system.mem_ctrls0.wrPerTurnAround::4-7          31418     93.31%     93.31% # Writes before turning the bus around for reads
system.mem_ctrls0.wrPerTurnAround::8-11          1636      4.86%     98.16% # Writes before turning the bus around for reads
system.mem_ctrls0.wrPerTurnAround::12-15          303      0.90%     99.06% # Writes before turning the bus around for reads
system.mem_ctrls0.wrPerTurnAround::16-19          315      0.94%    100.00% # Writes before turning the bus around for reads
system.mem_ctrls0.wrPerTurnAround::total        33672                       # Writes before turning the bus around for reads
system.mem_ctrls0.totQLat                 12551740476                       # Total ticks spent queuing
system.mem_ctrls0.totMemAccLat            18738921726                       # Total ticks spent from burst creation until serviced by the DRAM
system.mem_ctrls0.totBusLat                1649915000                       # Total ticks spent in databus transfers
system.mem_ctrls0.avgQLat                    38037.54                       # Average queueing delay per DRAM burst
system.mem_ctrls0.avgBusLat                   5000.00                       # Average bus latency per DRAM burst
system.mem_ctrls0.avgMemAccLat               56787.54                       # Average memory access latency per DRAM burst
system.mem_ctrls0.avgRdBW                      226.46                       # Average DRAM read bandwidth in MiByte/s
system.mem_ctrls0.avgWrBW                      127.75                       # Average achieved write bandwidth in MiByte/s
system.mem_ctrls0.avgRdBWSys                   226.49                       # Average system read bandwidth in MiByte/s
system.mem_ctrls0.avgWrBWSys                   127.75                       # Average system write bandwidth in MiByte/s
system.mem_ctrls0.peakBW                     12800.00                       # Theoretical peak bandwidth in MiByte/s
system.mem_ctrls0.busUtil                        2.77                       # Data bus utilization in percentage
system.mem_ctrls0.busUtilRead                    1.77                       # Data bus utilization in percentage for reads
system.mem_ctrls0.busUtilWrite                   1.00                       # Data bus utilization in percentage for writes
system.mem_ctrls0.avgRdQLen                      1.20                       # Average read queue length when enqueuing
system.mem_ctrls0.avgWrQLen                      2.96                       # Average write queue length when enqueuing
system.mem_ctrls0.readRowHits                  248682                       # Number of row buffer hits during reads
system.mem_ctrls0.writeRowHits                 111941                       # Number of row buffer hits during writes
system.mem_ctrls0.readRowHitRate                75.36                       # Row buffer hit rate for reads
system.mem_ctrls0.writeRowHitRate               60.14                       # Row buffer hit rate for writes
system.mem_ctrls0.avgGap                    180669.27                       # Average gap between requests
system.mem_ctrls0.pageHitRate                   69.87                       # Row buffer hit rate, read and write combined
system.mem_ctrls0.memoryStateTime::IDLE   15192160250                       # Time in different power states
system.mem_ctrls0.memoryStateTime::REF     3113760000                       # Time in different power states
system.mem_ctrls0.memoryStateTime::PRE_PDN            0                       # Time in different power states
system.mem_ctrls0.memoryStateTime::ACT    74946469750                       # Time in different power states
system.mem_ctrls0.memoryStateTime::ACT_PDN            0                       # Time in different power states
system.mem_ctrls0.actEnergy::0              593769960                       # Energy for activate commands per rank (pJ)
system.mem_ctrls0.actEnergy::1              581643720                       # Energy for activate commands per rank (pJ)
system.mem_ctrls0.preEnergy::0              323981625                       # Energy for precharge commands per rank (pJ)
system.mem_ctrls0.preEnergy::1              317365125                       # Energy for precharge commands per rank (pJ)
system.mem_ctrls0.readEnergy::0            1291999800                       # Energy for read commands per rank (pJ)
system.mem_ctrls0.readEnergy::1            1281719400                       # Energy for read commands per rank (pJ)
system.mem_ctrls0.writeEnergy::0            604214640                       # Energy for write commands per rank (pJ)
system.mem_ctrls0.writeEnergy::1            601920720                       # Energy for write commands per rank (pJ)
system.mem_ctrls0.refreshEnergy::0         6090514560                       # Energy for refresh commands per rank (pJ)
system.mem_ctrls0.refreshEnergy::1         6090514560                       # Energy for refresh commands per rank (pJ)
system.mem_ctrls0.actBackEnergy::0        38836131480                       # Energy for active background per rank (pJ)
system.mem_ctrls0.actBackEnergy::1        38118430800                       # Energy for active background per rank (pJ)
system.mem_ctrls0.preBackEnergy::0        21882252000                       # Energy for precharge background per rank (pJ)
system.mem_ctrls0.preBackEnergy::1        22511814000                       # Energy for precharge background per rank (pJ)
system.mem_ctrls0.totalEnergy::0          69622864065                       # Total energy per rank (pJ)
system.mem_ctrls0.totalEnergy::1          69503408325                       # Total energy per rank (pJ)
system.mem_ctrls0.averagePower::0          746.638779                       # Core power per rank (mW)
system.mem_ctrls0.averagePower::1          745.357730                       # Core power per rank (mW)
system.mem_ctrls1.bytes_read::ruby.dir_cntrl1     20691456                       # Number of bytes read from this memory
system.mem_ctrls1.bytes_read::total          20691456                       # Number of bytes read from this memory
system.mem_ctrls1.bytes_written::ruby.dir_cntrl1     11492736                       # Number of bytes written to this memory
system.mem_ctrls1.bytes_written::total       11492736                       # Number of bytes written to this memory
system.mem_ctrls1.num_reads::ruby.dir_cntrl1       323304                       # Number of read requests responded to by this memory
system.mem_ctrls1.num_reads::total             323304                       # Number of read requests responded to by this memory
system.mem_ctrls1.num_writes::ruby.dir_cntrl1       179574                       # Number of write requests responded to by this memory
system.mem_ctrls1.num_writes::total            179574                       # Number of write requests responded to by this memory
system.mem_ctrls1.bw_read::ruby.dir_cntrl1    221879116                       # Total read bandwidth from this memory (bytes/s)
system.mem_ctrls1.bw_read::total            221879116                       # Total read bandwidth from this memory (bytes/s)
system.mem_ctrls1.bw_write::ruby.dir_cntrl1    123239182                       # Write bandwidth from this memory (bytes/s)
system.mem_ctrls1.bw_write::total           123239182                       # Write bandwidth from this memory (bytes/s)
system.mem_ctrls1.bw_total::ruby.dir_cntrl1    345118298                       # Total bandwidth to/from this memory (bytes/s)
system.mem_ctrls1.bw_total::total           345118298                       # Total bandwidth to/from this memory (bytes/s)
system.mem_ctrls1.readReqs                     323304                       # Number of read requests accepted
system.mem_ctrls1.writeReqs                    179574                       # Number of write requests accepted
system.mem_ctrls1.readBursts                   323304                       # Number of DRAM read bursts, including those serviced by the write queue
system.mem_ctrls1.writeBursts                  179574                       # Number of DRAM write bursts, including those merged in the write queue
system.mem_ctrls1.bytesReadDRAM              20689536                       # Total number of bytes read from DRAM
system.mem_ctrls1.bytesReadWrQ                   1920                       # Total number of bytes read from write queue
system.mem_ctrls1.bytesWritten               11492544                       # Total number of bytes written to DRAM
system.mem_ctrls1.bytesReadSys               20691456                       # Total read bytes from the system interface side
system.mem_ctrls1.bytesWrittenSys            11492736                       # Total written bytes from the system interface side
system.mem_ctrls1.servicedByWrQ                    30                       # Number of DRAM read bursts serviced by the write queue
system.mem_ctrls1.mergedWrBursts                    0                       # Number of DRAM write bursts merged with an existing one
system.mem_ctrls1.neitherReadNorWriteReqs            0                       # Number of requests that are neither read nor write
system.mem_ctrls1.perBankRdBursts::0            19957                       # Per bank write bursts
system.mem_ctrls1.perBankRdBursts::1            20564                       # Per bank write bursts
system.mem_ctrls1.perBankRdBursts::2            20075                       # Per bank write bursts
system.mem_ctrls1.perBankRdBursts::3            20425                       # Per bank write bursts
system.mem_ctrls1.perBankRdBursts::4            20153                       # Per bank write bursts
system.mem_ctrls1.perBankRdBursts::5            20621                       # Per bank write bursts
system.mem_ctrls1.perBankRdBursts::6            20201                       # Per bank write bursts
system.mem_ctrls1.perBankRdBursts::7            20382                       # Per bank write bursts
system.mem_ctrls1.perBankRdBursts::8            20242                       # Per bank write bursts
system.mem_ctrls1.perBankRdBursts::9            20441                       # Per bank write bursts
system.mem_ctrls1.perBankRdBursts::10           20179                       # Per bank write bursts
system.mem_ctrls1.perBankRdBursts::11           20516                       # Per bank write bursts
system.mem_ctrls1.perBankRdBursts::12           19807                       # Per bank write bursts
system.mem_ctrls1.perBankRdBursts::13           19750                       # Per bank write bursts
system.mem_ctrls1.perBankRdBursts::14           19954                       # Per bank write bursts
system.mem_ctrls1.perBankRdBursts::15           20007                       # Per bank write bursts
system.mem_ctrls1.perBankWrBursts::0            11103                       # Per bank write bursts
system.mem_ctrls1.perBankWrBursts::1            11260                       # Per bank write bursts
system.mem_ctrls1.perBankWrBursts::2            11267                       # Per bank write bursts
system.mem_ctrls1.perBankWrBursts::3            11246                       # Per bank write bursts
system.mem_ctrls1.perBankWrBursts::4            11214                       # Per bank write bursts
system.mem_ctrls1.perBankWrBursts::5            11522                       # Per bank write bursts
system.mem_ctrls1.perBankWrBursts::6            11148                       # Per bank write bursts
system.mem_ctrls1.perBankWrBursts::7            11260                       # Per bank write bursts
system.mem_ctrls1.perBankWrBursts::8            11490                       # Per bank write bursts
system.mem_ctrls1.perBankWrBursts::9            11300                       # Per bank write bursts
system.mem_ctrls1.perBankWrBursts::10           11125                       # Per bank write bursts
system.mem_ctrls1.perBankWrBursts::11           11290                       # Per bank write bursts
system.mem_ctrls1.perBankWrBursts::12           10949                       # Per bank write bursts
system.mem_ctrls1.perBankWrBursts::13           10906                       # Per bank write bursts
system.mem_ctrls1.perBankWrBursts::14           11296                       # Per bank write bursts
system.mem_ctrls1.perBankWrBursts::15           11195                       # Per bank write bursts
system.mem_ctrls1.numRdRetry                     1584                       # Number of times read queue was full causing retry
system.mem_ctrls1.numWrRetry                     1505                       # Number of times write queue was full causing retry
system.mem_ctrls1.totGap                  93254705500                       # Total gap between requests
system.mem_ctrls1.readPktSize::0                    0                       # Read request sizes (log2)
system.mem_ctrls1.readPktSize::1                    0                       # Read request sizes (log2)
system.mem_ctrls1.readPktSize::2                    0                       # Read request sizes (log2)
system.mem_ctrls1.readPktSize::3                    0                       # Read request sizes (log2)
system.mem_ctrls1.readPktSize::4                    0                       # Read request sizes (log2)
system.mem_ctrls1.readPktSize::5                    0                       # Read request sizes (log2)
system.mem_ctrls1.readPktSize::6               323304                       # Read request sizes (log2)
system.mem_ctrls1.writePktSize::0                   0                       # Write request sizes (log2)
system.mem_ctrls1.writePktSize::1                   0                       # Write request sizes (log2)
system.mem_ctrls1.writePktSize::2                   0                       # Write request sizes (log2)
system.mem_ctrls1.writePktSize::3                   0                       # Write request sizes (log2)
system.mem_ctrls1.writePktSize::4                   0                       # Write request sizes (log2)
system.mem_ctrls1.writePktSize::5                   0                       # Write request sizes (log2)
system.mem_ctrls1.writePktSize::6              179574                       # Write request sizes (log2)
system.mem_ctrls1.rdQLenPdf::0                 155247                       # What read queue length does an incoming req see
system.mem_ctrls1.rdQLenPdf::1                  38306                       # What read queue length does an incoming req see
system.mem_ctrls1.rdQLenPdf::2                  29885                       # What read queue length does an incoming req see
system.mem_ctrls1.rdQLenPdf::3                  22201                       # What read queue length does an incoming req see
system.mem_ctrls1.rdQLenPdf::4                  16752                       # What read queue length does an incoming req see
system.mem_ctrls1.rdQLenPdf::5                  12484                       # What read queue length does an incoming req see
system.mem_ctrls1.rdQLenPdf::6                   9581                       # What read queue length does an incoming req see
system.mem_ctrls1.rdQLenPdf::7                   7446                       # What read queue length does an incoming req see
system.mem_ctrls1.rdQLenPdf::8                   5724                       # What read queue length does an incoming req see
system.mem_ctrls1.rdQLenPdf::9                   4407                       # What read queue length does an incoming req see
system.mem_ctrls1.rdQLenPdf::10                  3481                       # What read queue length does an incoming req see
system.mem_ctrls1.rdQLenPdf::11                  2779                       # What read queue length does an incoming req see
system.mem_ctrls1.rdQLenPdf::12                  2224                       # What read queue length does an incoming req see
system.mem_ctrls1.rdQLenPdf::13                  1787                       # What read queue length does an incoming req see
system.mem_ctrls1.rdQLenPdf::14                  1424                       # What read queue length does an incoming req see
system.mem_ctrls1.rdQLenPdf::15                  1159                       # What read queue length does an incoming req see
system.mem_ctrls1.rdQLenPdf::16                   961                       # What read queue length does an incoming req see
system.mem_ctrls1.rdQLenPdf::17                   826                       # What read queue length does an incoming req see
system.mem_ctrls1.rdQLenPdf::18                   750                       # What read queue length does an incoming req see
system.mem_ctrls1.rdQLenPdf::19                   635                       # What read queue length does an incoming req see
system.mem_ctrls1.rdQLenPdf::20                   532                       # What read queue length does an incoming req see
system.mem_ctrls1.rdQLenPdf::21                   444                       # What read queue length does an incoming req see
system.mem_ctrls1.rdQLenPdf::22                   361                       # What read queue length does an incoming req see
system.mem_ctrls1.rdQLenPdf::23                   318                       # What read queue length does an incoming req see
system.mem_ctrls1.rdQLenPdf::24                   315                       # What read queue length does an incoming req see
system.mem_ctrls1.rdQLenPdf::25                   299                       # What read queue length does an incoming req see
system.mem_ctrls1.rdQLenPdf::26                   266                       # What read queue length does an incoming req see
system.mem_ctrls1.rdQLenPdf::27                   215                       # What read queue length does an incoming req see
system.mem_ctrls1.rdQLenPdf::28                   192                       # What read queue length does an incoming req see
system.mem_ctrls1.rdQLenPdf::29                   188                       # What read queue length does an incoming req see
system.mem_ctrls1.rdQLenPdf::30                   227                       # What read queue length does an incoming req see
system.mem_ctrls1.rdQLenPdf::31                  1858                       # What read queue length does an incoming req see
system.mem_ctrls1.wrQLenPdf::0                  32352                       # What write queue length does an incoming req see
system.mem_ctrls1.wrQLenPdf::1                  34618                       # What write queue length does an incoming req see
system.mem_ctrls1.wrQLenPdf::2                  35091                       # What write queue length does an incoming req see
system.mem_ctrls1.wrQLenPdf::3                  34975                       # What write queue length does an incoming req see
system.mem_ctrls1.wrQLenPdf::4                  34625                       # What write queue length does an incoming req see
system.mem_ctrls1.wrQLenPdf::5                   3052                       # What write queue length does an incoming req see
system.mem_ctrls1.wrQLenPdf::6                   2104                       # What write queue length does an incoming req see
system.mem_ctrls1.wrQLenPdf::7                   2757                       # What write queue length does an incoming req see
system.mem_ctrls1.bytesPerActivate::samples       146685                       # Bytes accessed per row activation
system.mem_ctrls1.bytesPerActivate::mean   219.389304                       # Bytes accessed per row activation
system.mem_ctrls1.bytesPerActivate::gmean   164.162512                       # Bytes accessed per row activation
system.mem_ctrls1.bytesPerActivate::stdev   181.127898                       # Bytes accessed per row activation
system.mem_ctrls1.bytesPerActivate::0-127        45217     30.83%     30.83% # Bytes accessed per row activation
system.mem_ctrls1.bytesPerActivate::128-255        41600     28.36%     59.19% # Bytes accessed per row activation
system.mem_ctrls1.bytesPerActivate::256-383        42913     29.26%     88.44% # Bytes accessed per row activation
system.mem_ctrls1.bytesPerActivate::384-511         6617      4.51%     92.95% # Bytes accessed per row activation
system.mem_ctrls1.bytesPerActivate::512-639         4040      2.75%     95.71% # Bytes accessed per row activation
system.mem_ctrls1.bytesPerActivate::640-767         2136      1.46%     97.16% # Bytes accessed per row activation
system.mem_ctrls1.bytesPerActivate::768-895         1387      0.95%     98.11% # Bytes accessed per row activation
system.mem_ctrls1.bytesPerActivate::896-1023          914      0.62%     98.73% # Bytes accessed per row activation
system.mem_ctrls1.bytesPerActivate::1024-1151         1861      1.27%    100.00% # Bytes accessed per row activation
system.mem_ctrls1.bytesPerActivate::total       146685                       # Bytes accessed per row activation
system.mem_ctrls1.rdPerTurnAround::samples        32572                       # Reads before turning the bus around for writes
system.mem_ctrls1.rdPerTurnAround::mean      9.924690                       # Reads before turning the bus around for writes
system.mem_ctrls1.rdPerTurnAround::stdev    19.794516                       # Reads before turning the bus around for writes
system.mem_ctrls1.rdPerTurnAround::0-127        32566     99.98%     99.98% # Reads before turning the bus around for writes
system.mem_ctrls1.rdPerTurnAround::128-255            4      0.01%     99.99% # Reads before turning the bus around for writes
system.mem_ctrls1.rdPerTurnAround::1152-1279            1      0.00%    100.00% # Reads before turning the bus around for writes
system.mem_ctrls1.rdPerTurnAround::2816-2943            1      0.00%    100.00% # Reads before turning the bus around for writes
system.mem_ctrls1.rdPerTurnAround::total        32572                       # Reads before turning the bus around for writes
system.mem_ctrls1.wrPerTurnAround::samples        32572                       # Writes before turning the bus around for reads
system.mem_ctrls1.wrPerTurnAround::mean      5.513048                       # Writes before turning the bus around for reads
system.mem_ctrls1.wrPerTurnAround::gmean     5.381020                       # Writes before turning the bus around for reads
system.mem_ctrls1.wrPerTurnAround::stdev     1.557761                       # Writes before turning the bus around for reads
system.mem_ctrls1.wrPerTurnAround::4-7          30378     93.26%     93.26% # Writes before turning the bus around for reads
system.mem_ctrls1.wrPerTurnAround::8-11          1627      5.00%     98.26% # Writes before turning the bus around for reads
system.mem_ctrls1.wrPerTurnAround::12-15          297      0.91%     99.17% # Writes before turning the bus around for reads
system.mem_ctrls1.wrPerTurnAround::16-19          270      0.83%    100.00% # Writes before turning the bus around for reads
system.mem_ctrls1.wrPerTurnAround::total        32572                       # Writes before turning the bus around for reads
system.mem_ctrls1.totQLat                 11990614219                       # Total ticks spent queuing
system.mem_ctrls1.totMemAccLat            18052001719                       # Total ticks spent from burst creation until serviced by the DRAM
system.mem_ctrls1.totBusLat                1616370000                       # Total ticks spent in databus transfers
system.mem_ctrls1.avgQLat                    37091.18                       # Average queueing delay per DRAM burst
system.mem_ctrls1.avgBusLat                   5000.00                       # Average bus latency per DRAM burst
system.mem_ctrls1.avgMemAccLat               55841.18                       # Average memory access latency per DRAM burst
system.mem_ctrls1.avgRdBW                      221.86                       # Average DRAM read bandwidth in MiByte/s
system.mem_ctrls1.avgWrBW                      123.24                       # Average achieved write bandwidth in MiByte/s
system.mem_ctrls1.avgRdBWSys                   221.88                       # Average system read bandwidth in MiByte/s
system.mem_ctrls1.avgWrBWSys                   123.24                       # Average system write bandwidth in MiByte/s
system.mem_ctrls1.peakBW                     12800.00                       # Theoretical peak bandwidth in MiByte/s
system.mem_ctrls1.busUtil                        2.70                       # Data bus utilization in percentage
system.mem_ctrls1.busUtilRead                    1.73                       # Data bus utilization in percentage for reads
system.mem_ctrls1.busUtilWrite                   0.96                       # Data bus utilization in percentage for writes
system.mem_ctrls1.avgRdQLen                      1.18                       # Average read queue length when enqueuing
system.mem_ctrls1.avgWrQLen                      2.97                       # Average write queue length when enqueuing
system.mem_ctrls1.readRowHits                  245356                       # Number of row buffer hits during reads
system.mem_ctrls1.writeRowHits                 110794                       # Number of row buffer hits during writes
system.mem_ctrls1.readRowHitRate                75.90                       # Row buffer hit rate for reads
system.mem_ctrls1.writeRowHitRate               61.70                       # Row buffer hit rate for writes
system.mem_ctrls1.avgGap                    185442.01                       # Average gap between requests
system.mem_ctrls1.pageHitRate                   70.83                       # Row buffer hit rate, read and write combined
system.mem_ctrls1.memoryStateTime::IDLE   15390988750                       # Time in different power states
system.mem_ctrls1.memoryStateTime::REF     3113760000                       # Time in different power states
system.mem_ctrls1.memoryStateTime::PRE_PDN            0                       # Time in different power states
system.mem_ctrls1.memoryStateTime::ACT    74743655000                       # Time in different power states
system.mem_ctrls1.memoryStateTime::ACT_PDN            0                       # Time in different power states
system.mem_ctrls1.actEnergy::0              560248920                       # Energy for activate commands per rank (pJ)
system.mem_ctrls1.actEnergy::1              548629200                       # Energy for activate commands per rank (pJ)
system.mem_ctrls1.preEnergy::0              305691375                       # Energy for precharge commands per rank (pJ)
system.mem_ctrls1.preEnergy::1              299351250                       # Energy for precharge commands per rank (pJ)
system.mem_ctrls1.readEnergy::0            1266439200                       # Energy for read commands per rank (pJ)
system.mem_ctrls1.readEnergy::1            1254918600                       # Energy for read commands per rank (pJ)
system.mem_ctrls1.writeEnergy::0            583323120                       # Energy for write commands per rank (pJ)
system.mem_ctrls1.writeEnergy::1            580264560                       # Energy for write commands per rank (pJ)
system.mem_ctrls1.refreshEnergy::0         6090514560                       # Energy for refresh commands per rank (pJ)
system.mem_ctrls1.refreshEnergy::1         6090514560                       # Energy for refresh commands per rank (pJ)
system.mem_ctrls1.actBackEnergy::0        38328261480                       # Energy for active background per rank (pJ)
system.mem_ctrls1.actBackEnergy::1        37371573765                       # Energy for active background per rank (pJ)
system.mem_ctrls1.preBackEnergy::0        22327752000                       # Energy for precharge background per rank (pJ)
system.mem_ctrls1.preBackEnergy::1        23166951750                       # Energy for precharge background per rank (pJ)
system.mem_ctrls1.totalEnergy::0          69462230655                       # Total energy per rank (pJ)
system.mem_ctrls1.totalEnergy::1          69312203685                       # Total energy per rank (pJ)
system.mem_ctrls1.averagePower::0          744.916139                       # Core power per rank (mW)
system.mem_ctrls1.averagePower::1          743.307243                       # Core power per rank (mW)
system.mem_ctrls2.bytes_read::ruby.dir_cntrl2     20698176                       # Number of bytes read from this memory
system.mem_ctrls2.bytes_read::total          20698176                       # Number of bytes read from this memory
system.mem_ctrls2.bytes_written::ruby.dir_cntrl2     11494208                       # Number of bytes written to this memory
system.mem_ctrls2.bytes_written::total       11494208                       # Number of bytes written to this memory
system.mem_ctrls2.num_reads::ruby.dir_cntrl2       323409                       # Number of read requests responded to by this memory
system.mem_ctrls2.num_reads::total             323409                       # Number of read requests responded to by this memory
system.mem_ctrls2.num_writes::ruby.dir_cntrl2       179597                       # Number of write requests responded to by this memory
system.mem_ctrls2.num_writes::total            179597                       # Number of write requests responded to by this memory
system.mem_ctrls2.bw_read::ruby.dir_cntrl2    221951176                       # Total read bandwidth from this memory (bytes/s)
system.mem_ctrls2.bw_read::total            221951176                       # Total read bandwidth from this memory (bytes/s)
system.mem_ctrls2.bw_write::ruby.dir_cntrl2    123254966                       # Write bandwidth from this memory (bytes/s)
system.mem_ctrls2.bw_write::total           123254966                       # Write bandwidth from this memory (bytes/s)
system.mem_ctrls2.bw_total::ruby.dir_cntrl2    345206142                       # Total bandwidth to/from this memory (bytes/s)
system.mem_ctrls2.bw_total::total           345206142                       # Total bandwidth to/from this memory (bytes/s)
system.mem_ctrls2.readReqs                     323409                       # Number of read requests accepted
system.mem_ctrls2.writeReqs                    179597                       # Number of write requests accepted
system.mem_ctrls2.readBursts                   323409                       # Number of DRAM read bursts, including those serviced by the write queue
system.mem_ctrls2.writeBursts                  179597                       # Number of DRAM write bursts, including those merged in the write queue
system.mem_ctrls2.bytesReadDRAM              20697152                       # Total number of bytes read from DRAM
system.mem_ctrls2.bytesReadWrQ                   1024                       # Total number of bytes read from write queue
system.mem_ctrls2.bytesWritten               11493952                       # Total number of bytes written to DRAM
system.mem_ctrls2.bytesReadSys               20698176                       # Total read bytes from the system interface side
system.mem_ctrls2.bytesWrittenSys            11494208                       # Total written bytes from the system interface side
system.mem_ctrls2.servicedByWrQ                    16                       # Number of DRAM read bursts serviced by the write queue
system.mem_ctrls2.mergedWrBursts                    0                       # Number of DRAM write bursts merged with an existing one
system.mem_ctrls2.neitherReadNorWriteReqs            0                       # Number of requests that are neither read nor write
system.mem_ctrls2.perBankRdBursts::0            19959                       # Per bank write bursts
system.mem_ctrls2.perBankRdBursts::1            20568                       # Per bank write bursts
system.mem_ctrls2.perBankRdBursts::2            20120                       # Per bank write bursts
system.mem_ctrls2.perBankRdBursts::3            20516                       # Per bank write bursts
system.mem_ctrls2.perBankRdBursts::4            20148                       # Per bank write bursts
system.mem_ctrls2.perBankRdBursts::5            20576                       # Per bank write bursts
system.mem_ctrls2.perBankRdBursts::6            20211                       # Per bank write bursts
system.mem_ctrls2.perBankRdBursts::7            20356                       # Per bank write bursts
system.mem_ctrls2.perBankRdBursts::8            20234                       # Per bank write bursts
system.mem_ctrls2.perBankRdBursts::9            20451                       # Per bank write bursts
system.mem_ctrls2.perBankRdBursts::10           20199                       # Per bank write bursts
system.mem_ctrls2.perBankRdBursts::11           20569                       # Per bank write bursts
system.mem_ctrls2.perBankRdBursts::12           19838                       # Per bank write bursts
system.mem_ctrls2.perBankRdBursts::13           19703                       # Per bank write bursts
system.mem_ctrls2.perBankRdBursts::14           19916                       # Per bank write bursts
system.mem_ctrls2.perBankRdBursts::15           20029                       # Per bank write bursts
system.mem_ctrls2.perBankWrBursts::0            11104                       # Per bank write bursts
system.mem_ctrls2.perBankWrBursts::1            11265                       # Per bank write bursts
system.mem_ctrls2.perBankWrBursts::2            11263                       # Per bank write bursts
system.mem_ctrls2.perBankWrBursts::3            11272                       # Per bank write bursts
system.mem_ctrls2.perBankWrBursts::4            11210                       # Per bank write bursts
system.mem_ctrls2.perBankWrBursts::5            11505                       # Per bank write bursts
system.mem_ctrls2.perBankWrBursts::6            11159                       # Per bank write bursts
system.mem_ctrls2.perBankWrBursts::7            11255                       # Per bank write bursts
system.mem_ctrls2.perBankWrBursts::8            11469                       # Per bank write bursts
system.mem_ctrls2.perBankWrBursts::9            11309                       # Per bank write bursts
system.mem_ctrls2.perBankWrBursts::10           11111                       # Per bank write bursts
system.mem_ctrls2.perBankWrBursts::11           11308                       # Per bank write bursts
system.mem_ctrls2.perBankWrBursts::12           10961                       # Per bank write bursts
system.mem_ctrls2.perBankWrBursts::13           10901                       # Per bank write bursts
system.mem_ctrls2.perBankWrBursts::14           11295                       # Per bank write bursts
system.mem_ctrls2.perBankWrBursts::15           11206                       # Per bank write bursts
system.mem_ctrls2.numRdRetry                     1947                       # Number of times read queue was full causing retry
system.mem_ctrls2.numWrRetry                     1601                       # Number of times write queue was full causing retry
system.mem_ctrls2.totGap                  93255395000                       # Total gap between requests
system.mem_ctrls2.readPktSize::0                    0                       # Read request sizes (log2)
system.mem_ctrls2.readPktSize::1                    0                       # Read request sizes (log2)
system.mem_ctrls2.readPktSize::2                    0                       # Read request sizes (log2)
system.mem_ctrls2.readPktSize::3                    0                       # Read request sizes (log2)
system.mem_ctrls2.readPktSize::4                    0                       # Read request sizes (log2)
system.mem_ctrls2.readPktSize::5                    0                       # Read request sizes (log2)
system.mem_ctrls2.readPktSize::6               323409                       # Read request sizes (log2)
system.mem_ctrls2.writePktSize::0                   0                       # Write request sizes (log2)
system.mem_ctrls2.writePktSize::1                   0                       # Write request sizes (log2)
system.mem_ctrls2.writePktSize::2                   0                       # Write request sizes (log2)
system.mem_ctrls2.writePktSize::3                   0                       # Write request sizes (log2)
system.mem_ctrls2.writePktSize::4                   0                       # Write request sizes (log2)
system.mem_ctrls2.writePktSize::5                   0                       # Write request sizes (log2)
system.mem_ctrls2.writePktSize::6              179597                       # Write request sizes (log2)
system.mem_ctrls2.rdQLenPdf::0                 155705                       # What read queue length does an incoming req see
system.mem_ctrls2.rdQLenPdf::1                  38489                       # What read queue length does an incoming req see
system.mem_ctrls2.rdQLenPdf::2                  30073                       # What read queue length does an incoming req see
system.mem_ctrls2.rdQLenPdf::3                  22307                       # What read queue length does an incoming req see
system.mem_ctrls2.rdQLenPdf::4                  16513                       # What read queue length does an incoming req see
system.mem_ctrls2.rdQLenPdf::5                  12575                       # What read queue length does an incoming req see
system.mem_ctrls2.rdQLenPdf::6                   9626                       # What read queue length does an incoming req see
system.mem_ctrls2.rdQLenPdf::7                   7323                       # What read queue length does an incoming req see
system.mem_ctrls2.rdQLenPdf::8                   5632                       # What read queue length does an incoming req see
system.mem_ctrls2.rdQLenPdf::9                   4358                       # What read queue length does an incoming req see
system.mem_ctrls2.rdQLenPdf::10                  3486                       # What read queue length does an incoming req see
system.mem_ctrls2.rdQLenPdf::11                  2706                       # What read queue length does an incoming req see
system.mem_ctrls2.rdQLenPdf::12                  2205                       # What read queue length does an incoming req see
system.mem_ctrls2.rdQLenPdf::13                  1661                       # What read queue length does an incoming req see
system.mem_ctrls2.rdQLenPdf::14                  1406                       # What read queue length does an incoming req see
system.mem_ctrls2.rdQLenPdf::15                  1161                       # What read queue length does an incoming req see
system.mem_ctrls2.rdQLenPdf::16                   919                       # What read queue length does an incoming req see
system.mem_ctrls2.rdQLenPdf::17                   781                       # What read queue length does an incoming req see
system.mem_ctrls2.rdQLenPdf::18                   657                       # What read queue length does an incoming req see
system.mem_ctrls2.rdQLenPdf::19                   575                       # What read queue length does an incoming req see
system.mem_ctrls2.rdQLenPdf::20                   460                       # What read queue length does an incoming req see
system.mem_ctrls2.rdQLenPdf::21                   384                       # What read queue length does an incoming req see
system.mem_ctrls2.rdQLenPdf::22                   355                       # What read queue length does an incoming req see
system.mem_ctrls2.rdQLenPdf::23                   311                       # What read queue length does an incoming req see
system.mem_ctrls2.rdQLenPdf::24                   256                       # What read queue length does an incoming req see
system.mem_ctrls2.rdQLenPdf::25                   227                       # What read queue length does an incoming req see
system.mem_ctrls2.rdQLenPdf::26                   225                       # What read queue length does an incoming req see
system.mem_ctrls2.rdQLenPdf::27                   200                       # What read queue length does an incoming req see
system.mem_ctrls2.rdQLenPdf::28                   186                       # What read queue length does an incoming req see
system.mem_ctrls2.rdQLenPdf::29                   193                       # What read queue length does an incoming req see
system.mem_ctrls2.rdQLenPdf::30                   212                       # What read queue length does an incoming req see
system.mem_ctrls2.rdQLenPdf::31                  2226                       # What read queue length does an incoming req see
system.mem_ctrls2.wrQLenPdf::0                  32349                       # What write queue length does an incoming req see
system.mem_ctrls2.wrQLenPdf::1                  34543                       # What write queue length does an incoming req see
system.mem_ctrls2.wrQLenPdf::2                  34957                       # What write queue length does an incoming req see
system.mem_ctrls2.wrQLenPdf::3                  35023                       # What write queue length does an incoming req see
system.mem_ctrls2.wrQLenPdf::4                  34536                       # What write queue length does an incoming req see
system.mem_ctrls2.wrQLenPdf::5                   3082                       # What write queue length does an incoming req see
system.mem_ctrls2.wrQLenPdf::6                   2140                       # What write queue length does an incoming req see
system.mem_ctrls2.wrQLenPdf::7                   2967                       # What write queue length does an incoming req see
system.mem_ctrls2.bytesPerActivate::samples       146440                       # Bytes accessed per row activation
system.mem_ctrls2.bytesPerActivate::mean   219.818410                       # Bytes accessed per row activation
system.mem_ctrls2.bytesPerActivate::gmean   164.468110                       # Bytes accessed per row activation
system.mem_ctrls2.bytesPerActivate::stdev   181.425482                       # Bytes accessed per row activation
system.mem_ctrls2.bytesPerActivate::0-127        45142     30.83%     30.83% # Bytes accessed per row activation
system.mem_ctrls2.bytesPerActivate::128-255        41062     28.04%     58.87% # Bytes accessed per row activation
system.mem_ctrls2.bytesPerActivate::256-383        43413     29.65%     88.51% # Bytes accessed per row activation
system.mem_ctrls2.bytesPerActivate::384-511         6538      4.46%     92.98% # Bytes accessed per row activation
system.mem_ctrls2.bytesPerActivate::512-639         3926      2.68%     95.66% # Bytes accessed per row activation
system.mem_ctrls2.bytesPerActivate::640-767         2173      1.48%     97.14% # Bytes accessed per row activation
system.mem_ctrls2.bytesPerActivate::768-895         1352      0.92%     98.06% # Bytes accessed per row activation
system.mem_ctrls2.bytesPerActivate::896-1023          986      0.67%     98.74% # Bytes accessed per row activation
system.mem_ctrls2.bytesPerActivate::1024-1151         1848      1.26%    100.00% # Bytes accessed per row activation
system.mem_ctrls2.bytesPerActivate::total       146440                       # Bytes accessed per row activation
system.mem_ctrls2.rdPerTurnAround::samples        32556                       # Reads before turning the bus around for writes
system.mem_ctrls2.rdPerTurnAround::mean      9.933069                       # Reads before turning the bus around for writes
system.mem_ctrls2.rdPerTurnAround::stdev    19.827900                       # Reads before turning the bus around for writes
system.mem_ctrls2.rdPerTurnAround::0-127        32549     99.98%     99.98% # Reads before turning the bus around for writes
system.mem_ctrls2.rdPerTurnAround::128-255            5      0.02%     99.99% # Reads before turning the bus around for writes
system.mem_ctrls2.rdPerTurnAround::1152-1279            1      0.00%    100.00% # Reads before turning the bus around for writes
system.mem_ctrls2.rdPerTurnAround::2816-2943            1      0.00%    100.00% # Reads before turning the bus around for writes
system.mem_ctrls2.rdPerTurnAround::total        32556                       # Reads before turning the bus around for writes
system.mem_ctrls2.wrPerTurnAround::samples        32556                       # Writes before turning the bus around for reads
system.mem_ctrls2.wrPerTurnAround::mean      5.516433                       # Writes before turning the bus around for reads
system.mem_ctrls2.wrPerTurnAround::gmean     5.383877                       # Writes before turning the bus around for reads
system.mem_ctrls2.wrPerTurnAround::stdev     1.559728                       # Writes before turning the bus around for reads
system.mem_ctrls2.wrPerTurnAround::4-7          30356     93.24%     93.24% # Writes before turning the bus around for reads
system.mem_ctrls2.wrPerTurnAround::8-11          1632      5.01%     98.26% # Writes before turning the bus around for reads
system.mem_ctrls2.wrPerTurnAround::12-15          302      0.93%     99.18% # Writes before turning the bus around for reads
system.mem_ctrls2.wrPerTurnAround::16-19          266      0.82%    100.00% # Writes before turning the bus around for reads
system.mem_ctrls2.wrPerTurnAround::total        32556                       # Writes before turning the bus around for reads
system.mem_ctrls2.totQLat                 11879237288                       # Total ticks spent queuing
system.mem_ctrls2.totMemAccLat            17942856038                       # Total ticks spent from burst creation until serviced by the DRAM
system.mem_ctrls2.totBusLat                1616965000                       # Total ticks spent in databus transfers
system.mem_ctrls2.avgQLat                    36733.13                       # Average queueing delay per DRAM burst
system.mem_ctrls2.avgBusLat                   5000.00                       # Average bus latency per DRAM burst
system.mem_ctrls2.avgMemAccLat               55483.13                       # Average memory access latency per DRAM burst
system.mem_ctrls2.avgRdBW                      221.94                       # Average DRAM read bandwidth in MiByte/s
system.mem_ctrls2.avgWrBW                      123.25                       # Average achieved write bandwidth in MiByte/s
system.mem_ctrls2.avgRdBWSys                   221.95                       # Average system read bandwidth in MiByte/s
system.mem_ctrls2.avgWrBWSys                   123.25                       # Average system write bandwidth in MiByte/s
system.mem_ctrls2.peakBW                     12800.00                       # Theoretical peak bandwidth in MiByte/s
system.mem_ctrls2.busUtil                        2.70                       # Data bus utilization in percentage
system.mem_ctrls2.busUtilRead                    1.73                       # Data bus utilization in percentage for reads
system.mem_ctrls2.busUtilWrite                   0.96                       # Data bus utilization in percentage for writes
system.mem_ctrls2.avgRdQLen                      1.18                       # Average read queue length when enqueuing
system.mem_ctrls2.avgWrQLen                      2.97                       # Average write queue length when enqueuing
system.mem_ctrls2.readRowHits                  245410                       # Number of row buffer hits during reads
system.mem_ctrls2.writeRowHits                 111124                       # Number of row buffer hits during writes
system.mem_ctrls2.readRowHitRate                75.89                       # Row buffer hit rate for reads
system.mem_ctrls2.writeRowHitRate               61.87                       # Row buffer hit rate for writes
system.mem_ctrls2.avgGap                    185396.19                       # Average gap between requests
system.mem_ctrls2.pageHitRate                   70.88                       # Row buffer hit rate, read and write combined
system.mem_ctrls2.memoryStateTime::IDLE   15434822500                       # Time in different power states
system.mem_ctrls2.memoryStateTime::REF     3113760000                       # Time in different power states
system.mem_ctrls2.memoryStateTime::PRE_PDN            0                       # Time in different power states
system.mem_ctrls2.memoryStateTime::ACT    74700096500                       # Time in different power states
system.mem_ctrls2.memoryStateTime::ACT_PDN            0                       # Time in different power states
system.mem_ctrls2.actEnergy::0              559062000                       # Energy for activate commands per rank (pJ)
system.mem_ctrls2.actEnergy::1              547956360                       # Energy for activate commands per rank (pJ)
system.mem_ctrls2.preEnergy::0              305043750                       # Energy for precharge commands per rank (pJ)
system.mem_ctrls2.preEnergy::1              298984125                       # Energy for precharge commands per rank (pJ)
system.mem_ctrls2.readEnergy::0            1267039800                       # Energy for read commands per rank (pJ)
system.mem_ctrls2.readEnergy::1            1255246200                       # Energy for read commands per rank (pJ)
system.mem_ctrls2.writeEnergy::0            583381440                       # Energy for write commands per rank (pJ)
system.mem_ctrls2.writeEnergy::1            580348800                       # Energy for write commands per rank (pJ)
system.mem_ctrls2.refreshEnergy::0         6090514560                       # Energy for refresh commands per rank (pJ)
system.mem_ctrls2.refreshEnergy::1         6090514560                       # Energy for refresh commands per rank (pJ)
system.mem_ctrls2.actBackEnergy::0        38221477110                       # Energy for active background per rank (pJ)
system.mem_ctrls2.actBackEnergy::1        37302559875                       # Energy for active background per rank (pJ)
system.mem_ctrls2.preBackEnergy::0        22421422500                       # Energy for precharge background per rank (pJ)
system.mem_ctrls2.preBackEnergy::1        23227490250                       # Energy for precharge background per rank (pJ)
system.mem_ctrls2.totalEnergy::0          69447941160                       # Total energy per rank (pJ)
system.mem_ctrls2.totalEnergy::1          69303100170                       # Total energy per rank (pJ)
system.mem_ctrls2.averagePower::0          744.762898                       # Core power per rank (mW)
system.mem_ctrls2.averagePower::1          743.209616                       # Core power per rank (mW)
system.mem_ctrls3.bytes_read::ruby.dir_cntrl3     20674112                       # Number of bytes read from this memory
system.mem_ctrls3.bytes_read::total          20674112                       # Number of bytes read from this memory
system.mem_ctrls3.bytes_written::ruby.dir_cntrl3     11491776                       # Number of bytes written to this memory
system.mem_ctrls3.bytes_written::total       11491776                       # Number of bytes written to this memory
system.mem_ctrls3.num_reads::ruby.dir_cntrl3       323033                       # Number of read requests responded to by this memory
system.mem_ctrls3.num_reads::total             323033                       # Number of read requests responded to by this memory
system.mem_ctrls3.num_writes::ruby.dir_cntrl3       179559                       # Number of write requests responded to by this memory
system.mem_ctrls3.num_writes::total            179559                       # Number of write requests responded to by this memory
system.mem_ctrls3.bw_read::ruby.dir_cntrl3    221693132                       # Total read bandwidth from this memory (bytes/s)
system.mem_ctrls3.bw_read::total            221693132                       # Total read bandwidth from this memory (bytes/s)
system.mem_ctrls3.bw_write::ruby.dir_cntrl3    123228887                       # Write bandwidth from this memory (bytes/s)
system.mem_ctrls3.bw_write::total           123228887                       # Write bandwidth from this memory (bytes/s)
system.mem_ctrls3.bw_total::ruby.dir_cntrl3    344922020                       # Total bandwidth to/from this memory (bytes/s)
system.mem_ctrls3.bw_total::total           344922020                       # Total bandwidth to/from this memory (bytes/s)
system.mem_ctrls3.readReqs                     323034                       # Number of read requests accepted
system.mem_ctrls3.writeReqs                    179559                       # Number of write requests accepted
system.mem_ctrls3.readBursts                   323034                       # Number of DRAM read bursts, including those serviced by the write queue
system.mem_ctrls3.writeBursts                  179559                       # Number of DRAM write bursts, including those merged in the write queue
system.mem_ctrls3.bytesReadDRAM              20673472                       # Total number of bytes read from DRAM
system.mem_ctrls3.bytesReadWrQ                    704                       # Total number of bytes read from write queue
system.mem_ctrls3.bytesWritten               11491520                       # Total number of bytes written to DRAM
system.mem_ctrls3.bytesReadSys               20674176                       # Total read bytes from the system interface side
system.mem_ctrls3.bytesWrittenSys            11491776                       # Total written bytes from the system interface side
system.mem_ctrls3.servicedByWrQ                    11                       # Number of DRAM read bursts serviced by the write queue
system.mem_ctrls3.mergedWrBursts                    0                       # Number of DRAM write bursts merged with an existing one
system.mem_ctrls3.neitherReadNorWriteReqs            0                       # Number of requests that are neither read nor write
system.mem_ctrls3.perBankRdBursts::0            19954                       # Per bank write bursts
system.mem_ctrls3.perBankRdBursts::1            20554                       # Per bank write bursts
system.mem_ctrls3.perBankRdBursts::2            20026                       # Per bank write bursts
system.mem_ctrls3.perBankRdBursts::3            20458                       # Per bank write bursts
system.mem_ctrls3.perBankRdBursts::4            20073                       # Per bank write bursts
system.mem_ctrls3.perBankRdBursts::5            20536                       # Per bank write bursts
system.mem_ctrls3.perBankRdBursts::6            20228                       # Per bank write bursts
system.mem_ctrls3.perBankRdBursts::7            20341                       # Per bank write bursts
system.mem_ctrls3.perBankRdBursts::8            20215                       # Per bank write bursts
system.mem_ctrls3.perBankRdBursts::9            20454                       # Per bank write bursts
system.mem_ctrls3.perBankRdBursts::10           20222                       # Per bank write bursts
system.mem_ctrls3.perBankRdBursts::11           20481                       # Per bank write bursts
system.mem_ctrls3.perBankRdBursts::12           19815                       # Per bank write bursts
system.mem_ctrls3.perBankRdBursts::13           19692                       # Per bank write bursts
system.mem_ctrls3.perBankRdBursts::14           19955                       # Per bank write bursts
system.mem_ctrls3.perBankRdBursts::15           20019                       # Per bank write bursts
system.mem_ctrls3.perBankWrBursts::0            11107                       # Per bank write bursts
system.mem_ctrls3.perBankWrBursts::1            11268                       # Per bank write bursts
system.mem_ctrls3.perBankWrBursts::2            11269                       # Per bank write bursts
system.mem_ctrls3.perBankWrBursts::3            11250                       # Per bank write bursts
system.mem_ctrls3.perBankWrBursts::4            11208                       # Per bank write bursts
system.mem_ctrls3.perBankWrBursts::5            11507                       # Per bank write bursts
system.mem_ctrls3.perBankWrBursts::6            11144                       # Per bank write bursts
system.mem_ctrls3.perBankWrBursts::7            11254                       # Per bank write bursts
system.mem_ctrls3.perBankWrBursts::8            11463                       # Per bank write bursts
system.mem_ctrls3.perBankWrBursts::9            11306                       # Per bank write bursts
system.mem_ctrls3.perBankWrBursts::10           11111                       # Per bank write bursts
system.mem_ctrls3.perBankWrBursts::11           11313                       # Per bank write bursts
system.mem_ctrls3.perBankWrBursts::12           10957                       # Per bank write bursts
system.mem_ctrls3.perBankWrBursts::13           10906                       # Per bank write bursts
system.mem_ctrls3.perBankWrBursts::14           11300                       # Per bank write bursts
system.mem_ctrls3.perBankWrBursts::15           11192                       # Per bank write bursts
system.mem_ctrls3.numRdRetry                     2139                       # Number of times read queue was full causing retry
system.mem_ctrls3.numWrRetry                     1682                       # Number of times write queue was full causing retry
system.mem_ctrls3.totGap                  93254795000                       # Total gap between requests
system.mem_ctrls3.readPktSize::0                    0                       # Read request sizes (log2)
system.mem_ctrls3.readPktSize::1                    0                       # Read request sizes (log2)
system.mem_ctrls3.readPktSize::2                    0                       # Read request sizes (log2)
system.mem_ctrls3.readPktSize::3                    0                       # Read request sizes (log2)
system.mem_ctrls3.readPktSize::4                    0                       # Read request sizes (log2)
system.mem_ctrls3.readPktSize::5                    0                       # Read request sizes (log2)
system.mem_ctrls3.readPktSize::6               323034                       # Read request sizes (log2)
system.mem_ctrls3.writePktSize::0                   0                       # Write request sizes (log2)
system.mem_ctrls3.writePktSize::1                   0                       # Write request sizes (log2)
system.mem_ctrls3.writePktSize::2                   0                       # Write request sizes (log2)
system.mem_ctrls3.writePktSize::3                   0                       # Write request sizes (log2)
system.mem_ctrls3.writePktSize::4                   0                       # Write request sizes (log2)
system.mem_ctrls3.writePktSize::5                   0                       # Write request sizes (log2)
system.mem_ctrls3.writePktSize::6              179559                       # Write request sizes (log2)
system.mem_ctrls3.rdQLenPdf::0                 155044                       # What read queue length does an incoming req see
system.mem_ctrls3.rdQLenPdf::1                  38528                       # What read queue length does an incoming req see
system.mem_ctrls3.rdQLenPdf::2                  30194                       # What read queue length does an incoming req see
system.mem_ctrls3.rdQLenPdf::3                  22246                       # What read queue length does an incoming req see
system.mem_ctrls3.rdQLenPdf::4                  16576                       # What read queue length does an incoming req see
system.mem_ctrls3.rdQLenPdf::5                  12561                       # What read queue length does an incoming req see
system.mem_ctrls3.rdQLenPdf::6                   9577                       # What read queue length does an incoming req see
system.mem_ctrls3.rdQLenPdf::7                   7232                       # What read queue length does an incoming req see
system.mem_ctrls3.rdQLenPdf::8                   5684                       # What read queue length does an incoming req see
system.mem_ctrls3.rdQLenPdf::9                   4434                       # What read queue length does an incoming req see
system.mem_ctrls3.rdQLenPdf::10                  3424                       # What read queue length does an incoming req see
system.mem_ctrls3.rdQLenPdf::11                  2713                       # What read queue length does an incoming req see
system.mem_ctrls3.rdQLenPdf::12                  2228                       # What read queue length does an incoming req see
system.mem_ctrls3.rdQLenPdf::13                  1807                       # What read queue length does an incoming req see
system.mem_ctrls3.rdQLenPdf::14                  1428                       # What read queue length does an incoming req see
system.mem_ctrls3.rdQLenPdf::15                  1119                       # What read queue length does an incoming req see
system.mem_ctrls3.rdQLenPdf::16                   921                       # What read queue length does an incoming req see
system.mem_ctrls3.rdQLenPdf::17                   774                       # What read queue length does an incoming req see
system.mem_ctrls3.rdQLenPdf::18                   638                       # What read queue length does an incoming req see
system.mem_ctrls3.rdQLenPdf::19                   521                       # What read queue length does an incoming req see
system.mem_ctrls3.rdQLenPdf::20                   409                       # What read queue length does an incoming req see
system.mem_ctrls3.rdQLenPdf::21                   334                       # What read queue length does an incoming req see
system.mem_ctrls3.rdQLenPdf::22                   310                       # What read queue length does an incoming req see
system.mem_ctrls3.rdQLenPdf::23                   290                       # What read queue length does an incoming req see
system.mem_ctrls3.rdQLenPdf::24                   260                       # What read queue length does an incoming req see
[...]
system.ruby.L2Cache_Controller.MT_MB.L1_GETX::total            1                      
system.ruby.L2Cache_Controller.MT_MB.L1_PUTX |           1      2.08%      2.08% |           0      0.00%      2.08% |           1      2.08%      4.17% |           0      0.00%      4.17% |           3      6.25%     10.42% |           0      0.00%     10.42% |           3      6.25%     16.67% |           0      0.00%     16.67% |           1      2.08%     18.75% |           1      2.08%     20.83% |           5     10.42%     31.25% |           3      6.25%     37.50% |           2      4.17%     41.67% |           2      4.17%     45.83% |           3      6.25%     52.08% |           1      2.08%     54.17% |           3      6.25%     60.42% |           0      0.00%     60.42% |           0      0.00%     60.42% |           2      4.17%     64.58% |           1      2.08%     66.67% |           2      4.17%     70.83% |           5     10.42%     81.25% |           2      4.17%     85.42% |           1      2.08%     87.50% |           1      2.08%     89.58% |           0      0.00%     89.58% |           2      4.17%     93.75% |           0      0.00%     93.75% |           0      0.00%     93.75% |           3      6.25%    100.00% |           0      0.00%    100.00%
system.ruby.L2Cache_Controller.MT_MB.L1_PUTX::total           48                      
system.ruby.L2Cache_Controller.MT_MB.Exclusive_Unblock |      152465      5.70%      5.70% |       82492      3.08%      8.78% |       81176      3.03%     11.81% |       81991      3.06%     14.87% |       81124      3.03%     17.90% |       80525      3.01%     20.91% |       80754      3.02%     23.93% |       80451      3.01%     26.94% |       80649      3.01%     29.95% |       81897      3.06%     33.01% |       83134      3.11%     36.11% |       82270      3.07%     39.19% |       81818      3.06%     42.24% |       80249      3.00%     45.24% |       79876      2.98%     48.23% |       80314      3.00%     51.23% |       81208      3.03%     54.26% |       80866      3.02%     57.28% |       81594      3.05%     60.33% |       81683      3.05%     63.38% |       81441      3.04%     66.43% |       83639      3.12%     69.55% |       81443      3.04%     72.59% |       80843      3.02%     75.61% |       80879      3.02%     78.63% |       81223      3.03%     81.67% |       81113      3.03%     84.70% |       80595      3.01%     87.71% |       80961      3.02%     90.73% |       80242      3.00%     93.73% |       83097      3.10%     96.84% |       84655      3.16%    100.00%
system.ruby.L2Cache_Controller.MT_MB.Exclusive_Unblock::total      2676667                      
system.ruby.L2Cache_Controller.MT_IIB.L1_GETS |           0      0.00%      0.00% |           0      0.00%      0.00% |           0      0.00%      0.00% |           0      0.00%      0.00% |           0      0.00%      0.00% |           0      0.00%      0.00% |           0      0.00%      0.00% |           0      0.00%      0.00% |           0      0.00%      0.00% |           0      0.00%      0.00% |           0      0.00%      0.00% |           0      0.00%      0.00% |           0      0.00%      0.00% |           0      0.00%      0.00% |           0      0.00%      0.00% |           0      0.00%      0.00% |           2     33.33%     33.33% |           0      0.00%     33.33% |           0      0.00%     33.33% |           0      0.00%     33.33% |           0      0.00%     33.33% |           0      0.00%     33.33% |           0      0.00%     33.33% |           1     16.67%     50.00% |           2     33.33%     83.33% |           0      0.00%     83.33% |           0      0.00%     83.33% |           1     16.67%    100.00% |           0      0.00%    100.00% |           0      0.00%    100.00% |           0      0.00%    100.00% |           0      0.00%    100.00%
system.ruby.L2Cache_Controller.MT_IIB.L1_GETS::total            6                      
system.ruby.L2Cache_Controller.MT_IIB.L1_PUTX |          10      3.29%      3.29% |           8      2.63%      5.92% |          11      3.62%      9.54% |           4      1.32%     10.86% |           4      1.32%     12.17% |           3      0.99%     13.16% |           9      2.96%     16.12% |           8      2.63%     18.75% |          12      3.95%     22.70% |           8      2.63%     25.33% |           7      2.30%     27.63% |          12      3.95%     31.58% |           9      2.96%     34.54% |          10      3.29%     37.83% |          13      4.28%     42.11% |          13      4.28%     46.38% |          12      3.95%     50.33% |          13      4.28%     54.61% |           9      2.96%     57.57% |          14      4.61%     62.17% |          12      3.95%     66.12% |           6      1.97%     68.09% |           8      2.63%     70.72% |          14      4.61%     75.33% |          15      4.93%     80.26% |           7      2.30%     82.57% |           9      2.96%     85.53% |          14      4.61%     90.13% |           8      2.63%     92.76% |           4      1.32%     94.08% |          11      3.62%     97.70% |           7      2.30%    100.00%
system.ruby.L2Cache_Controller.MT_IIB.L1_PUTX::total          304                      
system.ruby.L2Cache_Controller.MT_IIB.WB_Data |           0      0.00%      0.00% |           0      0.00%      0.00% |           0      0.00%      0.00% |           0      0.00%      0.00% |           0      0.00%      0.00% |           0      0.00%      0.00% |           0      0.00%      0.00% |           0      0.00%      0.00% |           0      0.00%      0.00% |           0      0.00%      0.00% |           0      0.00%      0.00% |           0      0.00%      0.00% |           0      0.00%      0.00% |           0      0.00%      0.00% |           0      0.00%      0.00% |           0      0.00%      0.00% |           0      0.00%      0.00% |           0      0.00%      0.00% |           0      0.00%      0.00% |           0      0.00%      0.00% |           0      0.00%      0.00% |           0      0.00%      0.00% |           0      0.00%      0.00% |           0      0.00%      0.00% |           0      0.00%      0.00% |           2    100.00%    100.00% |           0      0.00%    100.00% |           0      0.00%    100.00% |           0      0.00%    100.00% |           0      0.00%    100.00% |           0      0.00%    100.00% |           0      0.00%    100.00%
system.ruby.L2Cache_Controller.MT_IIB.WB_Data::total            2                      
system.ruby.L2Cache_Controller.MT_IIB.WB_Data_clean |        1952      3.25%      3.25% |        1897      3.16%      6.41% |        1854      3.09%      9.50% |        1867      3.11%     12.61% |        1850      3.08%     15.69% |        1849      3.08%     18.77% |        1858      3.10%     21.87% |        1842      3.07%     24.94% |        1871      3.12%     28.05% |        1882      3.13%     31.19% |        1864      3.11%     34.29% |        1874      3.12%     37.41% |        1882      3.13%     40.55% |        1840      3.07%     43.61% |        1856      3.09%     46.71% |        1889      3.15%     49.85% |        1929      3.21%     53.07% |        1919      3.20%     56.26% |        1862      3.10%     59.36% |        1858      3.10%     62.46% |        1870      3.12%     65.57% |        1833      3.05%     68.63% |        1876      3.12%     71.75% |        1872      3.12%     74.87% |        1911      3.18%     78.05% |        1920      3.20%     81.25% |        1882      3.13%     84.39% |        1882      3.13%     87.52% |        1912      3.18%     90.71% |        1844      3.07%     93.78% |        1864      3.11%     96.88% |        1871      3.12%    100.00%
system.ruby.L2Cache_Controller.MT_IIB.WB_Data_clean::total        60032                      
system.ruby.L2Cache_Controller.MT_IIB.Unblock |          16      0.76%      0.76% |          24      1.15%      1.91% |          79      3.77%      5.68% |          64      3.05%      8.74% |          68      3.25%     11.98% |          68      3.25%     15.23% |          53      2.53%     17.76% |          68      3.25%     21.00% |         111      5.30%     26.30% |          82      3.91%     30.21% |          63      3.01%     33.22% |          74      3.53%     36.75% |          56      2.67%     39.43% |          87      4.15%     43.58% |          73      3.48%     47.06% |          35      1.67%     48.74% |          52      2.48%     51.22% |          72      3.44%     54.65% |          74      3.53%     58.19% |          78      3.72%     61.91% |          99      4.73%     66.63% |          87      4.15%     70.79% |          71      3.39%     74.18% |          55      2.63%     76.80% |          70      3.34%     80.14% |          45      2.15%     82.29% |          76      3.63%     85.92% |          59      2.82%     88.74% |          46      2.20%     90.93% |          84      4.01%     94.94% |          47      2.24%     97.18% |          59      2.82%    100.00%
system.ruby.L2Cache_Controller.MT_IIB.Unblock::total         2095                      
system.ruby.L2Cache_Controller.MT_IB.WB_Data_clean |          16      0.76%      0.76% |          24      1.15%      1.91% |          79      3.77%      5.68% |          64      3.05%      8.74% |          68      3.25%     11.98% |          68      3.25%     15.23% |          53      2.53%     17.76% |          68      3.25%     21.00% |         111      5.30%     26.30% |          82      3.91%     30.21% |          63      3.01%     33.22% |          74      3.53%     36.75% |          56      2.67%     39.43% |          87      4.15%     43.58% |          73      3.48%     47.06% |          35      1.67%     48.74% |          52      2.48%     51.22% |          72      3.44%     54.65% |          74      3.53%     58.19% |          78      3.72%     61.91% |          99      4.73%     66.63% |          87      4.15%     70.79% |          71      3.39%     74.18% |          55      2.63%     76.80% |          70      3.34%     80.14% |          45      2.15%     82.29% |          76      3.63%     85.92% |          59      2.82%     88.74% |          46      2.20%     90.93% |          84      4.01%     94.94% |          47      2.24%     97.18% |          59      2.82%    100.00%
system.ruby.L2Cache_Controller.MT_IB.WB_Data_clean::total         2095                      
system.ruby.L2Cache_Controller.MT_SB.L1_GETS |           0      0.00%      0.00% |           0      0.00%      0.00% |           0      0.00%      0.00% |           1     50.00%     50.00% |           0      0.00%     50.00% |           0      0.00%     50.00% |           0      0.00%     50.00% |           0      0.00%     50.00% |           0      0.00%     50.00% |           0      0.00%     50.00% |           0      0.00%     50.00% |           0      0.00%     50.00% |           0      0.00%     50.00% |           0      0.00%     50.00% |           0      0.00%     50.00% |           1     50.00%    100.00% |           0      0.00%    100.00% |           0      0.00%    100.00% |           0      0.00%    100.00% |           0      0.00%    100.00% |           0      0.00%    100.00% |           0      0.00%    100.00% |           0      0.00%    100.00% |           0      0.00%    100.00% |           0      0.00%    100.00% |           0      0.00%    100.00% |           0      0.00%    100.00% |           0      0.00%    100.00% |           0      0.00%    100.00% |           0      0.00%    100.00% |           0      0.00%    100.00% |           0      0.00%    100.00%
system.ruby.L2Cache_Controller.MT_SB.L1_GETS::total            2                      
system.ruby.L2Cache_Controller.MT_SB.L1_PUTX |           0      0.00%      0.00% |           0      0.00%      0.00% |           0      0.00%      0.00% |           0      0.00%      0.00% |           0      0.00%      0.00% |           0      0.00%      0.00% |           1     10.00%     10.00% |           0      0.00%     10.00% |           0      0.00%     10.00% |           0      0.00%     10.00% |           1     10.00%     20.00% |           0      0.00%     20.00% |           0      0.00%     20.00% |           0      0.00%     20.00% |           1     10.00%     30.00% |           0      0.00%     30.00% |           0      0.00%     30.00% |           0      0.00%     30.00% |           0      0.00%     30.00% |           0      0.00%     30.00% |           1     10.00%     40.00% |           1     10.00%     50.00% |           1     10.00%     60.00% |           2     20.00%     80.00% |           0      0.00%     80.00% |           1     10.00%     90.00% |           0      0.00%     90.00% |           0      0.00%     90.00% |           0      0.00%     90.00% |           0      0.00%     90.00% |           1     10.00%    100.00% |           0      0.00%    100.00%
system.ruby.L2Cache_Controller.MT_SB.L1_PUTX::total           10                      
system.ruby.L2Cache_Controller.MT_SB.Unblock |        1952      3.25%      3.25% |        1897      3.16%      6.41% |        1854      3.09%      9.50% |        1867      3.11%     12.61% |        1850      3.08%     15.69% |        1849      3.08%     18.77% |        1858      3.09%     21.87% |        1842      3.07%     24.93% |        1871      3.12%     28.05% |        1882      3.13%     31.19% |        1864      3.10%     34.29% |        1874      3.12%     37.41% |        1882      3.13%     40.55% |        1840      3.06%     43.61% |        1856      3.09%     46.70% |        1889      3.15%     49.85% |        1929      3.21%     53.06% |        1919      3.20%     56.26% |        1862      3.10%     59.36% |        1858      3.09%     62.46% |        1870      3.11%     65.57% |        1833      3.05%     68.62% |        1876      3.12%     71.75% |        1872      3.12%     74.87% |        1911      3.18%     78.05% |        1922      3.20%     81.25% |        1882      3.13%     84.39% |        1882      3.13%     87.52% |        1912      3.18%     90.71% |        1844      3.07%     93.78% |        1864      3.10%     96.88% |        1871      3.12%    100.00%
system.ruby.L2Cache_Controller.MT_SB.Unblock::total        60034                      
system.ruby.SimicsNetworkPortInterface_Controller.MessageSend |      514826     19.67%     19.67% |     1308978     50.00%     69.67% |      100343      3.83%     73.50% |      101787      3.89%     77.39% |      102251      3.91%     81.29% |      107981      4.12%     85.42% |       95583      3.65%     89.07% |      104830      4.00%     93.07% |       88607      3.38%     96.46% |       92770      3.54%    100.00% |           0      0.00%    100.00% |           0      0.00%    100.00% |           0      0.00%    100.00% |           0      0.00%    100.00% |           0      0.00%    100.00% |           0      0.00%    100.00% |           0      0.00%    100.00% |           0      0.00%    100.00% |           0      0.00%    100.00% |           0      0.00%    100.00% |           0      0.00%    100.00% |           0      0.00%    100.00% |           0      0.00%    100.00% |           0      0.00%    100.00% |           0      0.00%    100.00% |           0      0.00%    100.00% |           0      0.00%    100.00% |           0      0.00%    100.00% |           0      0.00%    100.00% |           0      0.00%    100.00% |           0      0.00%    100.00% |           0      0.00%    100.00%
system.ruby.SimicsNetworkPortInterface_Controller.MessageSend::total      2617956                      
system.ruby.SimicsNetworkPortInterface_Controller.MessageRecv |      514826     19.67%     19.67% |     1308978     50.00%     69.67% |      100343      3.83%     73.50% |      101787      3.89%     77.39% |      102251      3.91%     81.29% |      107981      4.12%     85.42% |       95583      3.65%     89.07% |      104830      4.00%     93.07% |       88607      3.38%     96.46% |       92770      3.54%    100.00% |           0      0.00%    100.00% |           0      0.00%    100.00% |           0      0.00%    100.00% |           0      0.00%    100.00% |           0      0.00%    100.00% |           0      0.00%    100.00% |           0      0.00%    100.00% |           0      0.00%    100.00% |           0      0.00%    100.00% |           0      0.00%    100.00% |           0      0.00%    100.00% |           0      0.00%    100.00% |           0      0.00%    100.00% |           0      0.00%    100.00% |           0      0.00%    100.00% |           0      0.00%    100.00% |           0      0.00%    100.00% |           0      0.00%    100.00% |           0      0.00%    100.00% |           0      0.00%    100.00% |           0      0.00%    100.00% |           0      0.00%    100.00%
system.ruby.SimicsNetworkPortInterface_Controller.MessageRecv::total      2617956                      
system.ruby.SimicsNetworkPortInterface_Controller.A.MessageSend |      514826     19.67%     19.67% |     1308978     50.00%     69.67% |      100343      3.83%     73.50% |      101787      3.89%     77.39% |      102251      3.91%     81.29% |      107981      4.12%     85.42% |       95583      3.65%     89.07% |      104830      4.00%     93.07% |       88607      3.38%     96.46% |       92770      3.54%    100.00% |           0      0.00%    100.00% |           0      0.00%    100.00% |           0      0.00%    100.00% |           0      0.00%    100.00% |           0      0.00%    100.00% |           0      0.00%    100.00% |           0      0.00%    100.00% |           0      0.00%    100.00% |           0      0.00%    100.00% |           0      0.00%    100.00% |           0      0.00%    100.00% |           0      0.00%    100.00% |           0      0.00%    100.00% |           0      0.00%    100.00% |           0      0.00%    100.00% |           0      0.00%    100.00% |           0      0.00%    100.00% |           0      0.00%    100.00% |           0      0.00%    100.00% |           0      0.00%    100.00% |           0      0.00%    100.00% |           0      0.00%    100.00%
system.ruby.SimicsNetworkPortInterface_Controller.A.MessageSend::total      2617956                      
system.ruby.SimicsNetworkPortInterface_Controller.A.MessageRecv |      514826     19.67%     19.67% |     1308978     50.00%     69.67% |      100343      3.83%     73.50% |      101787      3.89%     77.39% |      102251      3.91%     81.29% |      107981      4.12%     85.42% |       95583      3.65%     89.07% |      104830      4.00%     93.07% |       88607      3.38%     96.46% |       92770      3.54%    100.00% |           0      0.00%    100.00% |           0      0.00%    100.00% |           0      0.00%    100.00% |           0      0.00%    100.00% |           0      0.00%    100.00% |           0      0.00%    100.00% |           0      0.00%    100.00% |           0      0.00%    100.00% |           0      0.00%    100.00% |           0      0.00%    100.00% |           0      0.00%    100.00% |           0      0.00%    100.00% |           0      0.00%    100.00% |           0      0.00%    100.00% |           0      0.00%    100.00% |           0      0.00%    100.00% |           0      0.00%    100.00% |           0      0.00%    100.00% |           0      0.00%    100.00% |           0      0.00%    100.00% |           0      0.00%    100.00% |           0      0.00%    100.00%
system.ruby.SimicsNetworkPortInterface_Controller.A.MessageRecv::total      2617956                      
system.switch_cpus.kern.inst.arm                    0                       # number of arm instructions executed
system.switch_cpus.kern.inst.quiesce                0                       # number of quiesce instructions executed

---------- End Simulation Statistics   ----------
