
---------- Begin Simulation Statistics ----------
sim_seconds                                  0.042282                       # Number of seconds simulated
sim_ticks                                 42282307000                       # Number of ticks simulated
final_tick                               5218450385500                       # Number of ticks from beginning of simulation (restored from checkpoints and never reset)
sim_freq                                 1000000000000                       # Frequency of simulated ticks
host_inst_rate                                  39829                       # Simulator instruction rate (inst/s)
host_op_rate                                    69941                       # Simulator op (including micro ops) rate (op/s)
host_tick_rate                               57414574                       # Simulator tick rate (ticks/s)
host_mem_usage                                4773344                       # Number of bytes of host memory used
host_seconds                                   736.44                       # Real time elapsed on the host
sim_insts                                    29331464                       # Number of instructions simulated
sim_ops                                      51507216                       # Number of ops (including micro ops) simulated
system.voltage_domain.voltage                       1                       # Voltage in Volts
system.clk_domain.clock                           500                       # Clock period in ticks
system.mem_ctrls0.bytes_read::ruby.dir_cntrl0      4968512                       # Number of bytes read from this memory
system.mem_ctrls0.bytes_read::total           4968512                       # Number of bytes read from this memory
system.mem_ctrls0.bytes_written::ruby.dir_cntrl0      3962240                       # Number of bytes written to this memory
system.mem_ctrls0.bytes_written::total        3962240                       # Number of bytes written to this memory
system.mem_ctrls0.num_reads::ruby.dir_cntrl0        77633                       # Number of read requests responded to by this memory
system.mem_ctrls0.num_reads::total              77633                       # Number of read requests responded to by this memory
system.mem_ctrls0.num_writes::ruby.dir_cntrl0        61910                       # Number of write requests responded to by this memory
system.mem_ctrls0.num_writes::total             61910                       # Number of write requests responded to by this memory
system.mem_ctrls0.bw_read::ruby.dir_cntrl0    117508063                       # Total read bandwidth from this memory (bytes/s)
system.mem_ctrls0.bw_read::total            117508063                       # Total read bandwidth from this memory (bytes/s)
system.mem_ctrls0.bw_write::ruby.dir_cntrl0     93709172                       # Write bandwidth from this memory (bytes/s)
system.mem_ctrls0.bw_write::total            93709172                       # Write bandwidth from this memory (bytes/s)
system.mem_ctrls0.bw_total::ruby.dir_cntrl0    211217236                       # Total bandwidth to/from this memory (bytes/s)
system.mem_ctrls0.bw_total::total           211217236                       # Total bandwidth to/from this memory (bytes/s)
system.mem_ctrls0.readReqs                      77633                       # Number of read requests accepted
system.mem_ctrls0.writeReqs                     61910                       # Number of write requests accepted
system.mem_ctrls0.readBursts                    77633                       # Number of DRAM read bursts, including those serviced by the write queue
system.mem_ctrls0.writeBursts                   61910                       # Number of DRAM write bursts, including those merged in the write queue
system.mem_ctrls0.bytesReadDRAM               4966976                       # Total number of bytes read from DRAM
system.mem_ctrls0.bytesReadWrQ                   1536                       # Total number of bytes read from write queue
system.mem_ctrls0.bytesWritten                3962048                       # Total number of bytes written to DRAM
system.mem_ctrls0.bytesReadSys                4968512                       # Total read bytes from the system interface side
system.mem_ctrls0.bytesWrittenSys             3962240                       # Total written bytes from the system interface side
system.mem_ctrls0.servicedByWrQ                    24                       # Number of DRAM read bursts serviced by the write queue
system.mem_ctrls0.mergedWrBursts                    0                       # Number of DRAM write bursts merged with an existing one
system.mem_ctrls0.neitherReadNorWriteReqs            0                       # Number of requests that are neither read nor write
system.mem_ctrls0.perBankRdBursts::0             4394                       # Per bank write bursts
system.mem_ctrls0.perBankRdBursts::1             4838                       # Per bank write bursts
system.mem_ctrls0.perBankRdBursts::2             4556                       # Per bank write bursts
system.mem_ctrls0.perBankRdBursts::3             4965                       # Per bank write bursts
system.mem_ctrls0.perBankRdBursts::4             4842                       # Per bank write bursts
system.mem_ctrls0.perBankRdBursts::5             5350                       # Per bank write bursts
system.mem_ctrls0.perBankRdBursts::6             4946                       # Per bank write bursts
system.mem_ctrls0.perBankRdBursts::7             5223                       # Per bank write bursts
system.mem_ctrls0.perBankRdBursts::8             5043                       # Per bank write bursts
system.mem_ctrls0.perBankRdBursts::9             5195                       # Per bank write bursts
system.mem_ctrls0.perBankRdBursts::10            4626                       # Per bank write bursts
system.mem_ctrls0.perBankRdBursts::11            4795                       # Per bank write bursts
system.mem_ctrls0.perBankRdBursts::12            4583                       # Per bank write bursts
system.mem_ctrls0.perBankRdBursts::13            4636                       # Per bank write bursts
system.mem_ctrls0.perBankRdBursts::14            4800                       # Per bank write bursts
system.mem_ctrls0.perBankRdBursts::15            4817                       # Per bank write bursts
system.mem_ctrls0.perBankWrBursts::0             3622                       # Per bank write bursts
system.mem_ctrls0.perBankWrBursts::1             3563                       # Per bank write bursts
system.mem_ctrls0.perBankWrBursts::2             3650                       # Per bank write bursts
system.mem_ctrls0.perBankWrBursts::3             3794                       # Per bank write bursts
system.mem_ctrls0.perBankWrBursts::4             3852                       # Per bank write bursts
system.mem_ctrls0.perBankWrBursts::5             4188                       # Per bank write bursts
system.mem_ctrls0.perBankWrBursts::6             3913                       # Per bank write bursts
system.mem_ctrls0.perBankWrBursts::7             4179                       # Per bank write bursts
system.mem_ctrls0.perBankWrBursts::8             4052                       # Per bank write bursts
system.mem_ctrls0.perBankWrBursts::9             4126                       # Per bank write bursts
system.mem_ctrls0.perBankWrBursts::10            3703                       # Per bank write bursts
system.mem_ctrls0.perBankWrBursts::11            3638                       # Per bank write bursts
system.mem_ctrls0.perBankWrBursts::12            3786                       # Per bank write bursts
system.mem_ctrls0.perBankWrBursts::13            3903                       # Per bank write bursts
system.mem_ctrls0.perBankWrBursts::14            4030                       # Per bank write bursts
system.mem_ctrls0.perBankWrBursts::15            3908                       # Per bank write bursts
system.mem_ctrls0.numRdRetry                        0                       # Number of times read queue was full causing retry
system.mem_ctrls0.numWrRetry                       25                       # Number of times write queue was full causing retry
system.mem_ctrls0.totGap                  42282032000                       # Total gap between requests
system.mem_ctrls0.readPktSize::0                    0                       # Read request sizes (log2)
system.mem_ctrls0.readPktSize::1                    0                       # Read request sizes (log2)
system.mem_ctrls0.readPktSize::2                    0                       # Read request sizes (log2)
system.mem_ctrls0.readPktSize::3                    0                       # Read request sizes (log2)
system.mem_ctrls0.readPktSize::4                    0                       # Read request sizes (log2)
system.mem_ctrls0.readPktSize::5                    0                       # Read request sizes (log2)
system.mem_ctrls0.readPktSize::6                77633                       # Read request sizes (log2)
system.mem_ctrls0.writePktSize::0                   0                       # Write request sizes (log2)
system.mem_ctrls0.writePktSize::1                   0                       # Write request sizes (log2)
system.mem_ctrls0.writePktSize::2                   0                       # Write request sizes (log2)
system.mem_ctrls0.writePktSize::3                   0                       # Write request sizes (log2)
system.mem_ctrls0.writePktSize::4                   0                       # Write request sizes (log2)
system.mem_ctrls0.writePktSize::5                   0                       # Write request sizes (log2)
system.mem_ctrls0.writePktSize::6               61910                       # Write request sizes (log2)
system.mem_ctrls0.rdQLenPdf::0                  68422                       # What read queue length does an incoming req see
system.mem_ctrls0.rdQLenPdf::1                   7381                       # What read queue length does an incoming req see
system.mem_ctrls0.rdQLenPdf::2                   1261                       # What read queue length does an incoming req see
system.mem_ctrls0.rdQLenPdf::3                    276                       # What read queue length does an incoming req see
system.mem_ctrls0.rdQLenPdf::4                     90                       # What read queue length does an incoming req see
system.mem_ctrls0.rdQLenPdf::5                     59                       # What read queue length does an incoming req see
system.mem_ctrls0.rdQLenPdf::6                     34                       # What read queue length does an incoming req see
system.mem_ctrls0.rdQLenPdf::7                     27                       # What read queue length does an incoming req see
system.mem_ctrls0.rdQLenPdf::8                     18                       # What read queue length does an incoming req see
system.mem_ctrls0.rdQLenPdf::9                     13                       # What read queue length does an incoming req see
system.mem_ctrls0.rdQLenPdf::10                     8                       # What read queue length does an incoming req see
system.mem_ctrls0.rdQLenPdf::11                     6                       # What read queue length does an incoming req see
system.mem_ctrls0.rdQLenPdf::12                     5                       # What read queue length does an incoming req see
system.mem_ctrls0.rdQLenPdf::13                     3                       # What read queue length does an incoming req see
system.mem_ctrls0.rdQLenPdf::14                     3                       # What read queue length does an incoming req see
system.mem_ctrls0.rdQLenPdf::15                     3                       # What read queue length does an incoming req see
system.mem_ctrls0.rdQLenPdf::16                     0                       # What read queue length does an incoming req see
system.mem_ctrls0.rdQLenPdf::17                     0                       # What read queue length does an incoming req see
system.mem_ctrls0.rdQLenPdf::18                     0                       # What read queue length does an incoming req see
system.mem_ctrls0.rdQLenPdf::19                     0                       # What read queue length does an incoming req see
system.mem_ctrls0.rdQLenPdf::20                     0                       # What read queue length does an incoming req see
system.mem_ctrls0.rdQLenPdf::21                     0                       # What read queue length does an incoming req see
system.mem_ctrls0.rdQLenPdf::22                     0                       # What read queue length does an incoming req see
system.mem_ctrls0.rdQLenPdf::23                     0                       # What read queue length does an incoming req see
system.mem_ctrls0.rdQLenPdf::24                     0                       # What read queue length does an incoming req see
system.mem_ctrls0.rdQLenPdf::25                     0                       # What read queue length does an incoming req see
system.mem_ctrls0.rdQLenPdf::26                     0                       # What read queue length does an incoming req see
system.mem_ctrls0.rdQLenPdf::27                     0                       # What read queue length does an incoming req see
system.mem_ctrls0.rdQLenPdf::28                     0                       # What read queue length does an incoming req see
system.mem_ctrls0.rdQLenPdf::29                     0                       # What read queue length does an incoming req see
system.mem_ctrls0.rdQLenPdf::30                     0                       # What read queue length does an incoming req see
system.mem_ctrls0.rdQLenPdf::31                     0                       # What read queue length does an incoming req see
system.mem_ctrls0.wrQLenPdf::0                  12048                       # What write queue length does an incoming req see
system.mem_ctrls0.wrQLenPdf::1                  12587                       # What write queue length does an incoming req see
system.mem_ctrls0.wrQLenPdf::2                  12565                       # What write queue length does an incoming req see
system.mem_ctrls0.wrQLenPdf::3                  12322                       # What write queue length does an incoming req see
system.mem_ctrls0.wrQLenPdf::4                  12179                       # What write queue length does an incoming req see
system.mem_ctrls0.wrQLenPdf::5                    115                       # What write queue length does an incoming req see
system.mem_ctrls0.wrQLenPdf::6                     39                       # What write queue length does an incoming req see
system.mem_ctrls0.wrQLenPdf::7                     55                       # What write queue length does an incoming req see
system.mem_ctrls0.bytesPerActivate::samples        48002                       # Bytes accessed per row activation
system.mem_ctrls0.bytesPerActivate::mean   185.996250                       # Bytes accessed per row activation
system.mem_ctrls0.bytesPerActivate::gmean   133.971898                       # Bytes accessed per row activation
system.mem_ctrls0.bytesPerActivate::stdev   181.304442                       # Bytes accessed per row activation
system.mem_ctrls0.bytesPerActivate::0-127        20352     42.40%     42.40% # Bytes accessed per row activation
system.mem_ctrls0.bytesPerActivate::128-255        14261     29.71%     72.11% # Bytes accessed per row activation
system.mem_ctrls0.bytesPerActivate::256-383         8397     17.49%     89.60% # Bytes accessed per row activation
system.mem_ctrls0.bytesPerActivate::384-511         2029      4.23%     93.83% # Bytes accessed per row activation
system.mem_ctrls0.bytesPerActivate::512-639         1036      2.16%     95.99% # Bytes accessed per row activation
system.mem_ctrls0.bytesPerActivate::640-767          558      1.16%     97.15% # Bytes accessed per row activation
system.mem_ctrls0.bytesPerActivate::768-895          400      0.83%     97.98% # Bytes accessed per row activation
system.mem_ctrls0.bytesPerActivate::896-1023          337      0.70%     98.68% # Bytes accessed per row activation
system.mem_ctrls0.bytesPerActivate::1024-1151          632      1.32%    100.00% # Bytes accessed per row activation
system.mem_ctrls0.bytesPerActivate::total        48002                       # Bytes accessed per row activation
system.mem_ctrls0.rdPerTurnAround::samples        12051                       # Reads before turning the bus around for writes
system.mem_ctrls0.rdPerTurnAround::mean      6.439383                       # Reads before turning the bus around for writes
system.mem_ctrls0.rdPerTurnAround::stdev    36.760213                       # Reads before turning the bus around for writes
system.mem_ctrls0.rdPerTurnAround::0-127        12045     99.95%     99.95% # Reads before turning the bus around for writes
system.mem_ctrls0.rdPerTurnAround::128-255            5      0.04%     99.99% # Reads before turning the bus around for writes
system.mem_ctrls0.rdPerTurnAround::3968-4095            1      0.01%    100.00% # Reads before turning the bus around for writes
system.mem_ctrls0.rdPerTurnAround::total        12051                       # Reads before turning the bus around for writes
system.mem_ctrls0.wrPerTurnAround::samples        12051                       # Writes before turning the bus around for reads
system.mem_ctrls0.wrPerTurnAround::mean      5.137084                       # Writes before turning the bus around for reads
system.mem_ctrls0.wrPerTurnAround::gmean     5.116726                       # Writes before turning the bus around for reads
system.mem_ctrls0.wrPerTurnAround::stdev     0.548066                       # Writes before turning the bus around for reads
system.mem_ctrls0.wrPerTurnAround::4-7          11948     99.15%     99.15% # Writes before turning the bus around for reads
system.mem_ctrls0.wrPerTurnAround::8-11            91      0.76%     99.90% # Writes before turning the bus around for reads
system.mem_ctrls0.wrPerTurnAround::12-15            7      0.06%     99.96% # Writes before turning the bus around for reads
system.mem_ctrls0.wrPerTurnAround::16-19            5      0.04%    100.00% # Writes before turning the bus around for reads
system.mem_ctrls0.wrPerTurnAround::total        12051                       # Writes before turning the bus around for reads
system.mem_ctrls0.totQLat                  1156315983                       # Total ticks spent queuing
system.mem_ctrls0.totMemAccLat             2611484733                       # Total ticks spent from burst creation until serviced by the DRAM
system.mem_ctrls0.totBusLat                 388045000                       # Total ticks spent in databus transfers
system.mem_ctrls0.avgQLat                    14899.25                       # Average queueing delay per DRAM burst
system.mem_ctrls0.avgBusLat                   5000.00                       # Average bus latency per DRAM burst
system.mem_ctrls0.avgMemAccLat               33649.25                       # Average memory access latency per DRAM burst
system.mem_ctrls0.avgRdBW                      117.47                       # Average DRAM read bandwidth in MiByte/s
system.mem_ctrls0.avgWrBW                       93.70                       # Average achieved write bandwidth in MiByte/s
system.mem_ctrls0.avgRdBWSys                   117.51                       # Average system read bandwidth in MiByte/s
system.mem_ctrls0.avgWrBWSys                    93.71                       # Average system write bandwidth in MiByte/s
system.mem_ctrls0.peakBW                     12800.00                       # Theoretical peak bandwidth in MiByte/s
system.mem_ctrls0.busUtil                        1.65                       # Data bus utilization in percentage
system.mem_ctrls0.busUtilRead                    0.92                       # Data bus utilization in percentage for reads
system.mem_ctrls0.busUtilWrite                   0.73                       # Data bus utilization in percentage for writes
system.mem_ctrls0.avgRdQLen                      1.07                       # Average read queue length when enqueuing
system.mem_ctrls0.avgWrQLen                      2.87                       # Average write queue length when enqueuing
system.mem_ctrls0.readRowHits                   55153                       # Number of row buffer hits during reads
system.mem_ctrls0.writeRowHits                  36353                       # Number of row buffer hits during writes
system.mem_ctrls0.readRowHitRate                71.07                       # Row buffer hit rate for reads
system.mem_ctrls0.writeRowHitRate               58.72                       # Row buffer hit rate for writes
system.mem_ctrls0.avgGap                    303003.60                       # Average gap between requests
system.mem_ctrls0.pageHitRate                   65.59                       # Row buffer hit rate, read and write combined
system.mem_ctrls0.memoryStateTime::IDLE    9178763750                       # Time in different power states
system.mem_ctrls0.memoryStateTime::REF     1411800000                       # Time in different power states
system.mem_ctrls0.memoryStateTime::PRE_PDN            0                       # Time in different power states
system.mem_ctrls0.memoryStateTime::ACT    31689282250                       # Time in different power states
system.mem_ctrls0.memoryStateTime::ACT_PDN            0                       # Time in different power states
system.mem_ctrls0.actEnergy::0              182044800                       # Energy for activate commands per rank (pJ)
system.mem_ctrls0.actEnergy::1              180820080                       # Energy for activate commands per rank (pJ)
system.mem_ctrls0.preEnergy::0               99330000                       # Energy for precharge commands per rank (pJ)
system.mem_ctrls0.preEnergy::1               98661750                       # Energy for precharge commands per rank (pJ)
system.mem_ctrls0.readEnergy::0             305042400                       # Energy for read commands per rank (pJ)
system.mem_ctrls0.readEnergy::1             300214200                       # Energy for read commands per rank (pJ)
system.mem_ctrls0.writeEnergy::0            199311840                       # Energy for write commands per rank (pJ)
system.mem_ctrls0.writeEnergy::1            201813120                       # Energy for write commands per rank (pJ)
system.mem_ctrls0.refreshEnergy::0         2761480800                       # Energy for refresh commands per rank (pJ)
system.mem_ctrls0.refreshEnergy::1         2761480800                       # Energy for refresh commands per rank (pJ)
system.mem_ctrls0.actBackEnergy::0        17546026995                       # Energy for active background per rank (pJ)
system.mem_ctrls0.actBackEnergy::1        17083273635                       # Energy for active background per rank (pJ)
system.mem_ctrls0.preBackEnergy::0         9976506750                       # Energy for precharge background per rank (pJ)
system.mem_ctrls0.preBackEnergy::1        10382430750                       # Energy for precharge background per rank (pJ)
system.mem_ctrls0.totalEnergy::0          31069743585                       # Total energy per rank (pJ)
system.mem_ctrls0.totalEnergy::1          31008694335                       # Total energy per rank (pJ)
system.mem_ctrls0.averagePower::0          734.863750                       # Core power per rank (mW)
system.mem_ctrls0.averagePower::1          733.419809                       # Core power per rank (mW)
system.mem_ctrls1.bytes_read::ruby.dir_cntrl1      4884160                       # Number of bytes read from this memory
system.mem_ctrls1.bytes_read::total           4884160                       # Number of bytes read from this memory
system.mem_ctrls1.bytes_written::ruby.dir_cntrl1      3885120                       # Number of bytes written to this memory
system.mem_ctrls1.bytes_written::total        3885120                       # Number of bytes written to this memory
system.mem_ctrls1.num_reads::ruby.dir_cntrl1        76315                       # Number of read requests responded to by this memory
system.mem_ctrls1.num_reads::total              76315                       # Number of read requests responded to by this memory
system.mem_ctrls1.num_writes::ruby.dir_cntrl1        60705                       # Number of write requests responded to by this memory
system.mem_ctrls1.num_writes::total             60705                       # Number of write requests responded to by this memory
system.mem_ctrls1.bw_read::ruby.dir_cntrl1    115513092                       # Total read bandwidth from this memory (bytes/s)
system.mem_ctrls1.bw_read::total            115513092                       # Total read bandwidth from this memory (bytes/s)
system.mem_ctrls1.bw_write::ruby.dir_cntrl1     91885242                       # Write bandwidth from this memory (bytes/s)
system.mem_ctrls1.bw_write::total            91885242                       # Write bandwidth from this memory (bytes/s)
system.mem_ctrls1.bw_total::ruby.dir_cntrl1    207398333                       # Total bandwidth to/from this memory (bytes/s)
system.mem_ctrls1.bw_total::total           207398333                       # Total bandwidth to/from this memory (bytes/s)
system.mem_ctrls1.readReqs                      76315                       # Number of read requests accepted
system.mem_ctrls1.writeReqs                     60705                       # Number of write requests accepted
system.mem_ctrls1.readBursts                    76315                       # Number of DRAM read bursts, including those serviced by the write queue
system.mem_ctrls1.writeBursts                   60705                       # Number of DRAM write bursts, including those merged in the write queue
system.mem_ctrls1.bytesReadDRAM               4883392                       # Total number of bytes read from DRAM
system.mem_ctrls1.bytesReadWrQ                    768                       # Total number of bytes read from write queue
system.mem_ctrls1.bytesWritten                3885120                       # Total number of bytes written to DRAM
system.mem_ctrls1.bytesReadSys                4884160                       # Total read bytes from the system interface side
system.mem_ctrls1.bytesWrittenSys             3885120                       # Total written bytes from the system interface side
system.mem_ctrls1.servicedByWrQ                    12                       # Number of DRAM read bursts serviced by the write queue
system.mem_ctrls1.mergedWrBursts                    0                       # Number of DRAM write bursts merged with an existing one
system.mem_ctrls1.neitherReadNorWriteReqs            0                       # Number of requests that are neither read nor write
system.mem_ctrls1.perBankRdBursts::0             4323                       # Per bank write bursts
system.mem_ctrls1.perBankRdBursts::1             4748                       # Per bank write bursts
system.mem_ctrls1.perBankRdBursts::2             4480                       # Per bank write bursts
system.mem_ctrls1.perBankRdBursts::3             4894                       # Per bank write bursts
system.mem_ctrls1.perBankRdBursts::4             4781                       # Per bank write bursts
system.mem_ctrls1.perBankRdBursts::5             5298                       # Per bank write bursts
system.mem_ctrls1.perBankRdBursts::6             4889                       # Per bank write bursts
system.mem_ctrls1.perBankRdBursts::7             5161                       # Per bank write bursts
system.mem_ctrls1.perBankRdBursts::8             4943                       # Per bank write bursts
system.mem_ctrls1.perBankRdBursts::9             5088                       # Per bank write bursts
system.mem_ctrls1.perBankRdBursts::10            4529                       # Per bank write bursts
system.mem_ctrls1.perBankRdBursts::11            4727                       # Per bank write bursts
system.mem_ctrls1.perBankRdBursts::12            4491                       # Per bank write bursts
system.mem_ctrls1.perBankRdBursts::13            4575                       # Per bank write bursts
system.mem_ctrls1.perBankRdBursts::14            4636                       # Per bank write bursts
system.mem_ctrls1.perBankRdBursts::15            4740                       # Per bank write bursts
system.mem_ctrls1.perBankWrBursts::0             3556                       # Per bank write bursts
system.mem_ctrls1.perBankWrBursts::1             3504                       # Per bank write bursts
system.mem_ctrls1.perBankWrBursts::2             3588                       # Per bank write bursts
system.mem_ctrls1.perBankWrBursts::3             3743                       # Per bank write bursts
system.mem_ctrls1.perBankWrBursts::4             3788                       # Per bank write bursts
system.mem_ctrls1.perBankWrBursts::5             4120                       # Per bank write bursts
system.mem_ctrls1.perBankWrBursts::6             3835                       # Per bank write bursts
system.mem_ctrls1.perBankWrBursts::7             4094                       # Per bank write bursts
system.mem_ctrls1.perBankWrBursts::8             3967                       # Per bank write bursts
system.mem_ctrls1.perBankWrBursts::9             4033                       # Per bank write bursts
system.mem_ctrls1.perBankWrBursts::10            3625                       # Per bank write bursts
system.mem_ctrls1.perBankWrBursts::11            3570                       # Per bank write bursts
system.mem_ctrls1.perBankWrBursts::12            3715                       # Per bank write bursts
system.mem_ctrls1.perBankWrBursts::13            3831                       # Per bank write bursts
system.mem_ctrls1.perBankWrBursts::14            3899                       # Per bank write bursts
system.mem_ctrls1.perBankWrBursts::15            3837                       # Per bank write bursts
system.mem_ctrls1.numRdRetry                        0                       # Number of times read queue was full causing retry
system.mem_ctrls1.numWrRetry                       14                       # Number of times write queue was full causing retry
system.mem_ctrls1.totGap                  42281575500                       # Total gap between requests
system.mem_ctrls1.readPktSize::0                    0                       # Read request sizes (log2)
system.mem_ctrls1.readPktSize::1                    0                       # Read request sizes (log2)
system.mem_ctrls1.readPktSize::2                    0                       # Read request sizes (log2)
system.mem_ctrls1.readPktSize::3                    0                       # Read request sizes (log2)
system.mem_ctrls1.readPktSize::4                    0                       # Read request sizes (log2)
system.mem_ctrls1.readPktSize::5                    0                       # Read request sizes (log2)
system.mem_ctrls1.readPktSize::6                76315                       # Read request sizes (log2)
system.mem_ctrls1.writePktSize::0                   0                       # Write request sizes (log2)
system.mem_ctrls1.writePktSize::1                   0                       # Write request sizes (log2)
system.mem_ctrls1.writePktSize::2                   0                       # Write request sizes (log2)
system.mem_ctrls1.writePktSize::3                   0                       # Write request sizes (log2)
system.mem_ctrls1.writePktSize::4                   0                       # Write request sizes (log2)
system.mem_ctrls1.writePktSize::5                   0                       # Write request sizes (log2)
system.mem_ctrls1.writePktSize::6               60705                       # Write request sizes (log2)
system.mem_ctrls1.rdQLenPdf::0                  67989                       # What read queue length does an incoming req see
system.mem_ctrls1.rdQLenPdf::1                   6659                       # What read queue length does an incoming req see
system.mem_ctrls1.rdQLenPdf::2                   1137                       # What read queue length does an incoming req see
system.mem_ctrls1.rdQLenPdf::3                    278                       # What read queue length does an incoming req see
system.mem_ctrls1.rdQLenPdf::4                     86                       # What read queue length does an incoming req see
system.mem_ctrls1.rdQLenPdf::5                     55                       # What read queue length does an incoming req see
system.mem_ctrls1.rdQLenPdf::6                     34                       # What read queue length does an incoming req see
system.mem_ctrls1.rdQLenPdf::7                     21                       # What read queue length does an incoming req see
system.mem_ctrls1.rdQLenPdf::8                     11                       # What read queue length does an incoming req see
system.mem_ctrls1.rdQLenPdf::9                     11                       # What read queue length does an incoming req see
system.mem_ctrls1.rdQLenPdf::10                     6                       # What read queue length does an incoming req see
system.mem_ctrls1.rdQLenPdf::11                     6                       # What read queue length does an incoming req see
system.mem_ctrls1.rdQLenPdf::12                     5                       # What read queue length does an incoming req see
system.mem_ctrls1.rdQLenPdf::13                     3                       # What read queue length does an incoming req see
system.mem_ctrls1.rdQLenPdf::14                     2                       # What read queue length does an incoming req see
system.mem_ctrls1.rdQLenPdf::15                     0                       # What read queue length does an incoming req see
system.mem_ctrls1.rdQLenPdf::16                     0                       # What read queue length does an incoming req see
system.mem_ctrls1.rdQLenPdf::17                     0                       # What read queue length does an incoming req see
system.mem_ctrls1.rdQLenPdf::18                     0                       # What read queue length does an incoming req see
system.mem_ctrls1.rdQLenPdf::19                     0                       # What read queue length does an incoming req see
system.mem_ctrls1.rdQLenPdf::20                     0                       # What read queue length does an incoming req see
system.mem_ctrls1.rdQLenPdf::21                     0                       # What read queue length does an incoming req see
system.mem_ctrls1.rdQLenPdf::22                     0                       # What read queue length does an incoming req see
system.mem_ctrls1.rdQLenPdf::23                     0                       # What read queue length does an incoming req see
system.mem_ctrls1.rdQLenPdf::24                     0                       # What read queue length does an incoming req see
system.mem_ctrls1.rdQLenPdf::25                     0                       # What read queue length does an incoming req see
system.mem_ctrls1.rdQLenPdf::26                     0                       # What read queue length does an incoming req see
system.mem_ctrls1.rdQLenPdf::27                     0                       # What read queue length does an incoming req see
system.mem_ctrls1.rdQLenPdf::28                     0                       # What read queue length does an incoming req see
system.mem_ctrls1.rdQLenPdf::29                     0                       # What read queue length does an incoming req see
system.mem_ctrls1.rdQLenPdf::30                     0                       # What read queue length does an incoming req see
system.mem_ctrls1.rdQLenPdf::31                     0                       # What read queue length does an incoming req see
system.mem_ctrls1.wrQLenPdf::0                  11851                       # What write queue length does an incoming req see
system.mem_ctrls1.wrQLenPdf::1                  12324                       # What write queue length does an incoming req see
system.mem_ctrls1.wrQLenPdf::2                  12268                       # What write queue length does an incoming req see
system.mem_ctrls1.wrQLenPdf::3                  12103                       # What write queue length does an incoming req see
system.mem_ctrls1.wrQLenPdf::4                  11975                       # What write queue length does an incoming req see
system.mem_ctrls1.wrQLenPdf::5                    113                       # What write queue length does an incoming req see
system.mem_ctrls1.wrQLenPdf::6                     37                       # What write queue length does an incoming req see
system.mem_ctrls1.wrQLenPdf::7                     34                       # What write queue length does an incoming req see
system.mem_ctrls1.bytesPerActivate::samples        45937                       # Bytes accessed per row activation
system.mem_ctrls1.bytesPerActivate::mean   190.857566                       # Bytes accessed per row activation
system.mem_ctrls1.bytesPerActivate::gmean   137.103150                       # Bytes accessed per row activation
system.mem_ctrls1.bytesPerActivate::stdev   185.232493                       # Bytes accessed per row activation
system.mem_ctrls1.bytesPerActivate::0-127        18881     41.10%     41.10% # Bytes accessed per row activation
system.mem_ctrls1.bytesPerActivate::128-255        13724     29.88%     70.98% # Bytes accessed per row activation
system.mem_ctrls1.bytesPerActivate::256-383         8340     18.16%     89.13% # Bytes accessed per row activation
system.mem_ctrls1.bytesPerActivate::384-511         1980      4.31%     93.44% # Bytes accessed per row activation
system.mem_ctrls1.bytesPerActivate::512-639         1053      2.29%     95.74% # Bytes accessed per row activation
system.mem_ctrls1.bytesPerActivate::640-767          561      1.22%     96.96% # Bytes accessed per row activation
system.mem_ctrls1.bytesPerActivate::768-895          403      0.88%     97.83% # Bytes accessed per row activation
system.mem_ctrls1.bytesPerActivate::896-1023          336      0.73%     98.57% # Bytes accessed per row activation
system.mem_ctrls1.bytesPerActivate::1024-1151          659      1.43%    100.00% # Bytes accessed per row activation
system.mem_ctrls1.bytesPerActivate::total        45937                       # Bytes accessed per row activation
system.mem_ctrls1.rdPerTurnAround::samples        11855                       # Reads before turning the bus around for writes
system.mem_ctrls1.rdPerTurnAround::mean      6.436356                       # Reads before turning the bus around for writes
system.mem_ctrls1.rdPerTurnAround::stdev    29.206028                       # Reads before turning the bus around for writes
system.mem_ctrls1.rdPerTurnAround::0-127        11850     99.96%     99.96% # Reads before turning the bus around for writes
system.mem_ctrls1.rdPerTurnAround::128-255            3      0.03%     99.98% # Reads before turning the bus around for writes
system.mem_ctrls1.rdPerTurnAround::1152-1279            1      0.01%     99.99% # Reads before turning the bus around for writes
system.mem_ctrls1.rdPerTurnAround::2816-2943            1      0.01%    100.00% # Reads before turning the bus around for writes
system.mem_ctrls1.rdPerTurnAround::total        11855                       # Reads before turning the bus around for writes
system.mem_ctrls1.wrPerTurnAround::samples        11855                       # Writes before turning the bus around for reads
system.mem_ctrls1.wrPerTurnAround::mean      5.120624                       # Writes before turning the bus around for reads
system.mem_ctrls1.wrPerTurnAround::gmean     5.102908                       # Writes before turning the bus around for reads
system.mem_ctrls1.wrPerTurnAround::stdev     0.509692                       # Writes before turning the bus around for reads
system.mem_ctrls1.wrPerTurnAround::4-7          11767     99.26%     99.26% # Writes before turning the bus around for reads
system.mem_ctrls1.wrPerTurnAround::8-11            77      0.65%     99.91% # Writes before turning the bus around for reads
system.mem_ctrls1.wrPerTurnAround::12-15            7      0.06%     99.97% # Writes before turning the bus around for reads
system.mem_ctrls1.wrPerTurnAround::16-19            4      0.03%    100.00% # Writes before turning the bus around for reads
system.mem_ctrls1.wrPerTurnAround::total        11855                       # Writes before turning the bus around for reads
system.mem_ctrls1.totQLat                  1077645482                       # Total ticks spent queuing
system.mem_ctrls1.totMemAccLat             2508326732                       # Total ticks spent from burst creation until serviced by the DRAM
system.mem_ctrls1.totBusLat                 381515000                       # Total ticks spent in databus transfers
system.mem_ctrls1.avgQLat                    14123.24                       # Average queueing delay per DRAM burst
system.mem_ctrls1.avgBusLat                   5000.00                       # Average bus latency per DRAM burst
system.mem_ctrls1.avgMemAccLat               32873.24                       # Average memory access latency per DRAM burst
system.mem_ctrls1.avgRdBW                      115.49                       # Average DRAM read bandwidth in MiByte/s
system.mem_ctrls1.avgWrBW                       91.89                       # Average achieved write bandwidth in MiByte/s
system.mem_ctrls1.avgRdBWSys                   115.51                       # Average system read bandwidth in MiByte/s
system.mem_ctrls1.avgWrBWSys                    91.89                       # Average system write bandwidth in MiByte/s
system.mem_ctrls1.peakBW                     12800.00                       # Theoretical peak bandwidth in MiByte/s
system.mem_ctrls1.busUtil                        1.62                       # Data bus utilization in percentage
system.mem_ctrls1.busUtilRead                    0.90                       # Data bus utilization in percentage for reads
system.mem_ctrls1.busUtilWrite                   0.72                       # Data bus utilization in percentage for writes
system.mem_ctrls1.avgRdQLen                      1.04                       # Average read queue length when enqueuing
system.mem_ctrls1.avgWrQLen                      2.91                       # Average write queue length when enqueuing
system.mem_ctrls1.readRowHits                   54504                       # Number of row buffer hits during reads
system.mem_ctrls1.writeRowHits                  36556                       # Number of row buffer hits during writes
system.mem_ctrls1.readRowHitRate                71.43                       # Row buffer hit rate for reads
system.mem_ctrls1.writeRowHitRate               60.22                       # Row buffer hit rate for writes
system.mem_ctrls1.avgGap                    308579.59                       # Average gap between requests
system.mem_ctrls1.pageHitRate                   66.46                       # Row buffer hit rate, read and write combined
system.mem_ctrls1.memoryStateTime::IDLE    9545834500                       # Time in different power states
system.mem_ctrls1.memoryStateTime::REF     1411800000                       # Time in different power states
system.mem_ctrls1.memoryStateTime::PRE_PDN            0                       # Time in different power states
system.mem_ctrls1.memoryStateTime::ACT    31322089000                       # Time in different power states
system.mem_ctrls1.memoryStateTime::ACT_PDN            0                       # Time in different power states
system.mem_ctrls1.actEnergy::0              175437360                       # Energy for activate commands per rank (pJ)
system.mem_ctrls1.actEnergy::1              171778320                       # Energy for activate commands per rank (pJ)
system.mem_ctrls1.preEnergy::0               95724750                       # Energy for precharge commands per rank (pJ)
system.mem_ctrls1.preEnergy::1               93728250                       # Energy for precharge commands per rank (pJ)
system.mem_ctrls1.readEnergy::0             300799200                       # Energy for read commands per rank (pJ)
system.mem_ctrls1.readEnergy::1             294223800                       # Energy for read commands per rank (pJ)
system.mem_ctrls1.writeEnergy::0            195870960                       # Energy for write commands per rank (pJ)
system.mem_ctrls1.writeEnergy::1            197400240                       # Energy for write commands per rank (pJ)
system.mem_ctrls1.refreshEnergy::0         2761480800                       # Energy for refresh commands per rank (pJ)
system.mem_ctrls1.refreshEnergy::1         2761480800                       # Energy for refresh commands per rank (pJ)
system.mem_ctrls1.actBackEnergy::0        17394332895                       # Energy for active background per rank (pJ)
system.mem_ctrls1.actBackEnergy::1        16661324295                       # Energy for active background per rank (pJ)
system.mem_ctrls1.preBackEnergy::0        10109571750                       # Energy for precharge background per rank (pJ)
system.mem_ctrls1.preBackEnergy::1        10752561750                       # Energy for precharge background per rank (pJ)
system.mem_ctrls1.totalEnergy::0          31033217715                       # Total energy per rank (pJ)
system.mem_ctrls1.totalEnergy::1          30932497455                       # Total energy per rank (pJ)
system.mem_ctrls1.averagePower::0          733.999838                       # Core power per rank (mW)
system.mem_ctrls1.averagePower::1          731.617595                       # Core power per rank (mW)
system.mem_ctrls2.bytes_read::ruby.dir_cntrl2      4884288                       # Number of bytes read from this memory
system.mem_ctrls2.bytes_read::total           4884288                       # Number of bytes read from this memory
system.mem_ctrls2.bytes_written::ruby.dir_cntrl2      3886080                       # Number of bytes written to this memory
system.mem_ctrls2.bytes_written::total        3886080                       # Number of bytes written to this memory
system.mem_ctrls2.num_reads::ruby.dir_cntrl2        76317                       # Number of read requests responded to by this memory
system.mem_ctrls2.num_reads::total              76317                       # Number of read requests responded to by this memory
system.mem_ctrls2.num_writes::ruby.dir_cntrl2        60720                       # Number of write requests responded to by this memory
system.mem_ctrls2.num_writes::total             60720                       # Number of write requests responded to by this memory
system.mem_ctrls2.bw_read::ruby.dir_cntrl2    115516119                       # Total read bandwidth from this memory (bytes/s)
system.mem_ctrls2.bw_read::total            115516119                       # Total read bandwidth from this memory (bytes/s)
system.mem_ctrls2.bw_write::ruby.dir_cntrl2     91907946                       # Write bandwidth from this memory (bytes/s)
system.mem_ctrls2.bw_write::total            91907946                       # Write bandwidth from this memory (bytes/s)
system.mem_ctrls2.bw_total::ruby.dir_cntrl2    207424065                       # Total bandwidth to/from this memory (bytes/s)
system.mem_ctrls2.bw_total::total           207424065                       # Total bandwidth to/from this memory (bytes/s)
system.mem_ctrls2.readReqs                      76317                       # Number of read requests accepted
system.mem_ctrls2.writeReqs                     60720                       # Number of write requests accepted
system.mem_ctrls2.readBursts                    76317                       # Number of DRAM read bursts, including those serviced by the write queue
system.mem_ctrls2.writeBursts                   60720                       # Number of DRAM write bursts, including those merged in the write queue
system.mem_ctrls2.bytesReadDRAM               4883328                       # Total number of bytes read from DRAM
system.mem_ctrls2.bytesReadWrQ                    960                       # Total number of bytes read from write queue
system.mem_ctrls2.bytesWritten                3885888                       # Total number of bytes written to DRAM
system.mem_ctrls2.bytesReadSys                4884288                       # Total read bytes from the system interface side
system.mem_ctrls2.bytesWrittenSys             3886080                       # Total written bytes from the system interface side
system.mem_ctrls2.servicedByWrQ                    15                       # Number of DRAM read bursts serviced by the write queue
system.mem_ctrls2.mergedWrBursts                    0                       # Number of DRAM write bursts merged with an existing one
system.mem_ctrls2.neitherReadNorWriteReqs            0                       # Number of requests that are neither read nor write
system.mem_ctrls2.perBankRdBursts::0             4317                       # Per bank write bursts
system.mem_ctrls2.perBankRdBursts::1             4751                       # Per bank write bursts
system.mem_ctrls2.perBankRdBursts::2             4490                       # Per bank write bursts
system.mem_ctrls2.perBankRdBursts::3             4903                       # Per bank write bursts
system.mem_ctrls2.perBankRdBursts::4             4779                       # Per bank write bursts
system.mem_ctrls2.perBankRdBursts::5             5299                       # Per bank write bursts
system.mem_ctrls2.perBankRdBursts::6             4862                       # Per bank write bursts
system.mem_ctrls2.perBankRdBursts::7             5164                       # Per bank write bursts
system.mem_ctrls2.perBankRdBursts::8             4922                       # Per bank write bursts
system.mem_ctrls2.perBankRdBursts::9             5097                       # Per bank write bursts
system.mem_ctrls2.perBankRdBursts::10            4532                       # Per bank write bursts
system.mem_ctrls2.perBankRdBursts::11            4769                       # Per bank write bursts
system.mem_ctrls2.perBankRdBursts::12            4493                       # Per bank write bursts
system.mem_ctrls2.perBankRdBursts::13            4547                       # Per bank write bursts
system.mem_ctrls2.perBankRdBursts::14            4624                       # Per bank write bursts
system.mem_ctrls2.perBankRdBursts::15            4753                       # Per bank write bursts
system.mem_ctrls2.perBankWrBursts::0             3554                       # Per bank write bursts
system.mem_ctrls2.perBankWrBursts::1             3505                       # Per bank write bursts
system.mem_ctrls2.perBankWrBursts::2             3586                       # Per bank write bursts
system.mem_ctrls2.perBankWrBursts::3             3732                       # Per bank write bursts
system.mem_ctrls2.perBankWrBursts::4             3787                       # Per bank write bursts
system.mem_ctrls2.perBankWrBursts::5             4119                       # Per bank write bursts
system.mem_ctrls2.perBankWrBursts::6             3839                       # Per bank write bursts
system.mem_ctrls2.perBankWrBursts::7             4111                       # Per bank write bursts
system.mem_ctrls2.perBankWrBursts::8             3966                       # Per bank write bursts
system.mem_ctrls2.perBankWrBursts::9             4041                       # Per bank write bursts
system.mem_ctrls2.perBankWrBursts::10            3625                       # Per bank write bursts
system.mem_ctrls2.perBankWrBursts::11            3578                       # Per bank write bursts
system.mem_ctrls2.perBankWrBursts::12            3719                       # Per bank write bursts
system.mem_ctrls2.perBankWrBursts::13            3826                       # Per bank write bursts
system.mem_ctrls2.perBankWrBursts::14            3894                       # Per bank write bursts
system.mem_ctrls2.perBankWrBursts::15            3835                       # Per bank write bursts
system.mem_ctrls2.numRdRetry                        0                       # Number of times read queue was full causing retry
system.mem_ctrls2.numWrRetry                        9                       # Number of times write queue was full causing retry
system.mem_ctrls2.totGap                  42282063500                       # Total gap between requests
system.mem_ctrls2.readPktSize::0                    0                       # Read request sizes (log2)
system.mem_ctrls2.readPktSize::1                    0                       # Read request sizes (log2)
system.mem_ctrls2.readPktSize::2                    0                       # Read request sizes (log2)
system.mem_ctrls2.readPktSize::3                    0                       # Read request sizes (log2)
system.mem_ctrls2.readPktSize::4                    0                       # Read request sizes (log2)
system.mem_ctrls2.readPktSize::5                    0                       # Read request sizes (log2)
system.mem_ctrls2.readPktSize::6                76317                       # Read request sizes (log2)
system.mem_ctrls2.writePktSize::0                   0                       # Write request sizes (log2)
system.mem_ctrls2.writePktSize::1                   0                       # Write request sizes (log2)
system.mem_ctrls2.writePktSize::2                   0                       # Write request sizes (log2)
system.mem_ctrls2.writePktSize::3                   0                       # Write request sizes (log2)
system.mem_ctrls2.writePktSize::4                   0                       # Write request sizes (log2)
system.mem_ctrls2.writePktSize::5                   0                       # Write request sizes (log2)
system.mem_ctrls2.writePktSize::6               60720                       # Write request sizes (log2)
system.mem_ctrls2.rdQLenPdf::0                  67960                       # What read queue length does an incoming req see
system.mem_ctrls2.rdQLenPdf::1                   6712                       # What read queue length does an incoming req see
system.mem_ctrls2.rdQLenPdf::2                   1132                       # What read queue length does an incoming req see
system.mem_ctrls2.rdQLenPdf::3                    277                       # What read queue length does an incoming req see
system.mem_ctrls2.rdQLenPdf::4                    108                       # What read queue length does an incoming req see
system.mem_ctrls2.rdQLenPdf::5                     51                       # What read queue length does an incoming req see
system.mem_ctrls2.rdQLenPdf::6                     28                       # What read queue length does an incoming req see
system.mem_ctrls2.rdQLenPdf::7                     15                       # What read queue length does an incoming req see
system.mem_ctrls2.rdQLenPdf::8                      8                       # What read queue length does an incoming req see
system.mem_ctrls2.rdQLenPdf::9                      4                       # What read queue length does an incoming req see
system.mem_ctrls2.rdQLenPdf::10                     4                       # What read queue length does an incoming req see
system.mem_ctrls2.rdQLenPdf::11                     2                       # What read queue length does an incoming req see
system.mem_ctrls2.rdQLenPdf::12                     1                       # What read queue length does an incoming req see
system.mem_ctrls2.rdQLenPdf::13                     0                       # What read queue length does an incoming req see
system.mem_ctrls2.rdQLenPdf::14                     0                       # What read queue length does an incoming req see
system.mem_ctrls2.rdQLenPdf::15                     0                       # What read queue length does an incoming req see
system.mem_ctrls2.rdQLenPdf::16                     0                       # What read queue length does an incoming req see
system.mem_ctrls2.rdQLenPdf::17                     0                       # What read queue length does an incoming req see
system.mem_ctrls2.rdQLenPdf::18                     0                       # What read queue length does an incoming req see
system.mem_ctrls2.rdQLenPdf::19                     0                       # What read queue length does an incoming req see
system.mem_ctrls2.rdQLenPdf::20                     0                       # What read queue length does an incoming req see
system.mem_ctrls2.rdQLenPdf::21                     0                       # What read queue length does an incoming req see
system.mem_ctrls2.rdQLenPdf::22                     0                       # What read queue length does an incoming req see
system.mem_ctrls2.rdQLenPdf::23                     0                       # What read queue length does an incoming req see
system.mem_ctrls2.rdQLenPdf::24                     0                       # What read queue length does an incoming req see
system.mem_ctrls2.rdQLenPdf::25                     0                       # What read queue length does an incoming req see
system.mem_ctrls2.rdQLenPdf::26                     0                       # What read queue length does an incoming req see
system.mem_ctrls2.rdQLenPdf::27                     0                       # What read queue length does an incoming req see
system.mem_ctrls2.rdQLenPdf::28                     0                       # What read queue length does an incoming req see
system.mem_ctrls2.rdQLenPdf::29                     0                       # What read queue length does an incoming req see
system.mem_ctrls2.rdQLenPdf::30                     0                       # What read queue length does an incoming req see
system.mem_ctrls2.rdQLenPdf::31                     0                       # What read queue length does an incoming req see
system.mem_ctrls2.wrQLenPdf::0                  11861                       # What write queue length does an incoming req see
system.mem_ctrls2.wrQLenPdf::1                  12304                       # What write queue length does an incoming req see
system.mem_ctrls2.wrQLenPdf::2                  12269                       # What write queue length does an incoming req see
system.mem_ctrls2.wrQLenPdf::3                  12104                       # What write queue length does an incoming req see
system.mem_ctrls2.wrQLenPdf::4                  11989                       # What write queue length does an incoming req see
system.mem_ctrls2.wrQLenPdf::5                    130                       # What write queue length does an incoming req see
system.mem_ctrls2.wrQLenPdf::6                     36                       # What write queue length does an incoming req see
system.mem_ctrls2.wrQLenPdf::7                     27                       # What write queue length does an incoming req see
system.mem_ctrls2.bytesPerActivate::samples        45805                       # Bytes accessed per row activation
system.mem_ctrls2.bytesPerActivate::mean   191.429931                       # Bytes accessed per row activation
system.mem_ctrls2.bytesPerActivate::gmean   137.689569                       # Bytes accessed per row activation
system.mem_ctrls2.bytesPerActivate::stdev   185.031246                       # Bytes accessed per row activation
system.mem_ctrls2.bytesPerActivate::0-127        18660     40.74%     40.74% # Bytes accessed per row activation
system.mem_ctrls2.bytesPerActivate::128-255        13706     29.92%     70.66% # Bytes accessed per row activation
system.mem_ctrls2.bytesPerActivate::256-383         8461     18.47%     89.13% # Bytes accessed per row activation
system.mem_ctrls2.bytesPerActivate::384-511         1953      4.26%     93.40% # Bytes accessed per row activation
system.mem_ctrls2.bytesPerActivate::512-639         1046      2.28%     95.68% # Bytes accessed per row activation
system.mem_ctrls2.bytesPerActivate::640-767          579      1.26%     96.94% # Bytes accessed per row activation
system.mem_ctrls2.bytesPerActivate::768-895          424      0.93%     97.87% # Bytes accessed per row activation
system.mem_ctrls2.bytesPerActivate::896-1023          330      0.72%     98.59% # Bytes accessed per row activation
system.mem_ctrls2.bytesPerActivate::1024-1151          646      1.41%    100.00% # Bytes accessed per row activation
system.mem_ctrls2.bytesPerActivate::total        45805                       # Bytes accessed per row activation
system.mem_ctrls2.rdPerTurnAround::samples        11861                       # Reads before turning the bus around for writes
system.mem_ctrls2.rdPerTurnAround::mean      6.432341                       # Reads before turning the bus around for writes
system.mem_ctrls2.rdPerTurnAround::stdev    29.267512                       # Reads before turning the bus around for writes
system.mem_ctrls2.rdPerTurnAround::0-127        11856     99.96%     99.96% # Reads before turning the bus around for writes
system.mem_ctrls2.rdPerTurnAround::128-255            3      0.03%     99.98% # Reads before turning the bus around for writes
system.mem_ctrls2.rdPerTurnAround::1152-1279            1      0.01%     99.99% # Reads before turning the bus around for writes
system.mem_ctrls2.rdPerTurnAround::2816-2943            1      0.01%    100.00% # Reads before turning the bus around for writes
system.mem_ctrls2.rdPerTurnAround::total        11861                       # Reads before turning the bus around for writes
system.mem_ctrls2.wrPerTurnAround::samples        11861                       # Writes before turning the bus around for reads
system.mem_ctrls2.wrPerTurnAround::mean      5.119046                       # Writes before turning the bus around for reads
system.mem_ctrls2.wrPerTurnAround::gmean     5.102275                       # Writes before turning the bus around for reads
system.mem_ctrls2.wrPerTurnAround::stdev     0.485881                       # Writes before turning the bus around for reads
system.mem_ctrls2.wrPerTurnAround::4-7          11774     99.27%     99.27% # Writes before turning the bus around for reads
system.mem_ctrls2.wrPerTurnAround::8-11            80      0.67%     99.94% # Writes before turning the bus around for reads
system.mem_ctrls2.wrPerTurnAround::12-15            5      0.04%     99.98% # Writes before turning the bus around for reads
system.mem_ctrls2.wrPerTurnAround::16-19            2      0.02%    100.00% # Writes before turning the bus around for reads
system.mem_ctrls2.wrPerTurnAround::total        11861                       # Writes before turning the bus around for reads
system.mem_ctrls2.totQLat                  1075291478                       # Total ticks spent queuing
system.mem_ctrls2.totMemAccLat             2505953978                       # Total ticks spent from burst creation until serviced by the DRAM
system.mem_ctrls2.totBusLat                 381510000                       # Total ticks spent in databus transfers
system.mem_ctrls2.avgQLat                    14092.57                       # Average queueing delay per DRAM burst
system.mem_ctrls2.avgBusLat                   5000.00                       # Average bus latency per DRAM burst
system.mem_ctrls2.avgMemAccLat               32842.57                       # Average memory access latency per DRAM burst
system.mem_ctrls2.avgRdBW                      115.49                       # Average DRAM read bandwidth in MiByte/s
system.mem_ctrls2.avgWrBW                       91.90                       # Average achieved write bandwidth in MiByte/s
system.mem_ctrls2.avgRdBWSys                   115.52                       # Average system read bandwidth in MiByte/s
system.mem_ctrls2.avgWrBWSys                    91.91                       # Average system write bandwidth in MiByte/s
system.mem_ctrls2.peakBW                     12800.00                       # Theoretical peak bandwidth in MiByte/s
system.mem_ctrls2.busUtil                        1.62                       # Data bus utilization in percentage
system.mem_ctrls2.busUtilRead                    0.90                       # Data bus utilization in percentage for reads
system.mem_ctrls2.busUtilWrite                   0.72                       # Data bus utilization in percentage for writes
system.mem_ctrls2.avgRdQLen                      1.04                       # Average read queue length when enqueuing
system.mem_ctrls2.avgWrQLen                      2.94                       # Average write queue length when enqueuing
system.mem_ctrls2.readRowHits                   54543                       # Number of row buffer hits during reads
system.mem_ctrls2.writeRowHits                  36665                       # Number of row buffer hits during writes
system.mem_ctrls2.readRowHitRate                71.48                       # Row buffer hit rate for reads
system.mem_ctrls2.writeRowHitRate               60.38                       # Row buffer hit rate for writes
system.mem_ctrls2.avgGap                    308544.87                       # Average gap between requests
system.mem_ctrls2.pageHitRate                   66.56                       # Row buffer hit rate, read and write combined
system.mem_ctrls2.memoryStateTime::IDLE    9526887750                       # Time in different power states
system.mem_ctrls2.memoryStateTime::REF     1411800000                       # Time in different power states
system.mem_ctrls2.memoryStateTime::PRE_PDN            0                       # Time in different power states
system.mem_ctrls2.memoryStateTime::ACT    31340923500                       # Time in different power states
system.mem_ctrls2.memoryStateTime::ACT_PDN            0                       # Time in different power states
system.mem_ctrls2.actEnergy::0              175429800                       # Energy for activate commands per rank (pJ)
system.mem_ctrls2.actEnergy::1              170818200                       # Energy for activate commands per rank (pJ)
system.mem_ctrls2.preEnergy::0               95720625                       # Energy for precharge commands per rank (pJ)
system.mem_ctrls2.preEnergy::1               93204375                       # Energy for precharge commands per rank (pJ)
system.mem_ctrls2.readEnergy::0             300744600                       # Energy for read commands per rank (pJ)
system.mem_ctrls2.readEnergy::1             294317400                       # Energy for read commands per rank (pJ)
system.mem_ctrls2.writeEnergy::0            195903360                       # Energy for write commands per rank (pJ)
system.mem_ctrls2.writeEnergy::1            197510400                       # Energy for write commands per rank (pJ)
system.mem_ctrls2.refreshEnergy::0         2761480800                       # Energy for refresh commands per rank (pJ)
system.mem_ctrls2.refreshEnergy::1         2761480800                       # Energy for refresh commands per rank (pJ)
system.mem_ctrls2.actBackEnergy::0        17299857960                       # Energy for active background per rank (pJ)
system.mem_ctrls2.actBackEnergy::1        16820006310                       # Energy for active background per rank (pJ)
system.mem_ctrls2.preBackEnergy::0        10192444500                       # Energy for precharge background per rank (pJ)
system.mem_ctrls2.preBackEnergy::1        10613367000                       # Energy for precharge background per rank (pJ)
system.mem_ctrls2.totalEnergy::0          31021581645                       # Total energy per rank (pJ)
system.mem_ctrls2.totalEnergy::1          30950704485                       # Total energy per rank (pJ)
system.mem_ctrls2.averagePower::0          733.724621                       # Core power per rank (mW)
system.mem_ctrls2.averagePower::1          732.048229                       # Core power per rank (mW)
system.mem_ctrls3.bytes_read::ruby.dir_cntrl3      4859008                       # Number of bytes read from this memory
system.mem_ctrls3.bytes_read::total           4859008                       # Number of bytes read from this memory
system.mem_ctrls3.bytes_written::ruby.dir_cntrl3      3877888                       # Number of bytes written to this memory
system.mem_ctrls3.bytes_written::total        3877888                       # Number of bytes written to this memory
system.mem_ctrls3.num_reads::ruby.dir_cntrl3        75922                       # Number of read requests responded to by this memory
system.mem_ctrls3.num_reads::total              75922                       # Number of read requests responded to by this memory
system.mem_ctrls3.num_writes::ruby.dir_cntrl3        60592                       # Number of write requests responded to by this memory
system.mem_ctrls3.num_writes::total             60592                       # Number of write requests responded to by this memory
system.mem_ctrls3.bw_read::ruby.dir_cntrl3    114918233                       # Total read bandwidth from this memory (bytes/s)
system.mem_ctrls3.bw_read::total            114918233                       # Total read bandwidth from this memory (bytes/s)
system.mem_ctrls3.bw_write::ruby.dir_cntrl3     91714201                       # Write bandwidth from this memory (bytes/s)
system.mem_ctrls3.bw_write::total            91714201                       # Write bandwidth from this memory (bytes/s)
system.mem_ctrls3.bw_total::ruby.dir_cntrl3    206632434                       # Total bandwidth to/from this memory (bytes/s)
system.mem_ctrls3.bw_total::total           206632434                       # Total bandwidth to/from this memory (bytes/s)
system.mem_ctrls3.readReqs                      75923                       # Number of read requests accepted
system.mem_ctrls3.writeReqs                     60592                       # Number of write requests accepted
system.mem_ctrls3.readBursts                    75923                       # Number of DRAM read bursts, including those serviced by the write queue
system.mem_ctrls3.writeBursts                   60592                       # Number of DRAM write bursts, including those merged in the write queue
system.mem_ctrls3.bytesReadDRAM               4858496                       # Total number of bytes read from DRAM
system.mem_ctrls3.bytesReadWrQ                    576                       # Total number of bytes read from write queue
system.mem_ctrls3.bytesWritten                3877696                       # Total number of bytes written to DRAM
system.mem_ctrls3.bytesReadSys                4859072                       # Total read bytes from the system interface side
system.mem_ctrls3.bytesWrittenSys             3877888                       # Total written bytes from the system interface side
system.mem_ctrls3.servicedByWrQ                     9                       # Number of DRAM read bursts serviced by the write queue
system.mem_ctrls3.mergedWrBursts                    0                       # Number of DRAM write bursts merged with an existing one
system.mem_ctrls3.neitherReadNorWriteReqs            0                       # Number of requests that are neither read nor write
system.mem_ctrls3.perBankRdBursts::0             4296                       # Per bank write bursts
system.mem_ctrls3.perBankRdBursts::1             4723                       # Per bank write bursts
system.mem_ctrls3.perBankRdBursts::2             4431                       # Per bank write bursts
system.mem_ctrls3.perBankRdBursts::3             4859                       # Per bank write bursts
system.mem_ctrls3.perBankRdBursts::4             4727                       # Per bank write bursts
system.mem_ctrls3.perBankRdBursts::5             5243                       # Per bank write bursts
system.mem_ctrls3.perBankRdBursts::6             4864                       # Per bank write bursts
system.mem_ctrls3.perBankRdBursts::7             5147                       # Per bank write bursts
system.mem_ctrls3.perBankRdBursts::8             4919                       # Per bank write bursts
system.mem_ctrls3.perBankRdBursts::9             5074                       # Per bank write bursts
system.mem_ctrls3.perBankRdBursts::10            4529                       # Per bank write bursts
system.mem_ctrls3.perBankRdBursts::11            4732                       # Per bank write bursts
system.mem_ctrls3.perBankRdBursts::12            4474                       # Per bank write bursts
system.mem_ctrls3.perBankRdBursts::13            4522                       # Per bank write bursts
system.mem_ctrls3.perBankRdBursts::14            4645                       # Per bank write bursts
system.mem_ctrls3.perBankRdBursts::15            4729                       # Per bank write bursts
system.mem_ctrls3.perBankWrBursts::0             3554                       # Per bank write bursts
system.mem_ctrls3.perBankWrBursts::1             3503                       # Per bank write bursts
system.mem_ctrls3.perBankWrBursts::2             3573                       # Per bank write bursts
system.mem_ctrls3.perBankWrBursts::3             3718                       # Per bank write bursts
system.mem_ctrls3.perBankWrBursts::4             3778                       # Per bank write bursts
system.mem_ctrls3.perBankWrBursts::5             4100                       # Per bank write bursts
system.mem_ctrls3.perBankWrBursts::6             3826                       # Per bank write bursts
system.mem_ctrls3.perBankWrBursts::7             4092                       # Per bank write bursts
system.mem_ctrls3.perBankWrBursts::8             3964                       # Per bank write bursts
system.mem_ctrls3.perBankWrBursts::9             4035                       # Per bank write bursts
system.mem_ctrls3.perBankWrBursts::10            3611                       # Per bank write bursts
system.mem_ctrls3.perBankWrBursts::11            3582                       # Per bank write bursts
system.mem_ctrls3.perBankWrBursts::12            3708                       # Per bank write bursts
system.mem_ctrls3.perBankWrBursts::13            3825                       # Per bank write bursts
system.mem_ctrls3.perBankWrBursts::14            3894                       # Per bank write bursts
system.mem_ctrls3.perBankWrBursts::15            3826                       # Per bank write bursts
system.mem_ctrls3.numRdRetry                        0                       # Number of times read queue was full causing retry
system.mem_ctrls3.numWrRetry                       18                       # Number of times write queue was full causing retry
system.mem_ctrls3.totGap                  42281552500                       # Total gap between requests
system.mem_ctrls3.readPktSize::0                    0                       # Read request sizes (log2)
system.mem_ctrls3.readPktSize::1                    0                       # Read request sizes (log2)
system.mem_ctrls3.readPktSize::2                    0                       # Read request sizes (log2)
system.mem_ctrls3.readPktSize::3                    0                       # Read request sizes (log2)
system.mem_ctrls3.readPktSize::4                    0                       # Read request sizes (log2)
system.mem_ctrls3.readPktSize::5                    0                       # Read request sizes (log2)
system.mem_ctrls3.readPktSize::6                75923                       # Read request sizes (log2)
system.mem_ctrls3.writePktSize::0                   0                       # Write request sizes (log2)
system.mem_ctrls3.writePktSize::1                   0                       # Write request sizes (log2)
system.mem_ctrls3.writePktSize::2                   0                       # Write request sizes (log2)
system.mem_ctrls3.writePktSize::3                   0                       # Write request sizes (log2)
system.mem_ctrls3.writePktSize::4                   0                       # Write request sizes (log2)
system.mem_ctrls3.writePktSize::5                   0                       # Write request sizes (log2)
system.mem_ctrls3.writePktSize::6               60592                       # Write request sizes (log2)
system.mem_ctrls3.rdQLenPdf::0                  67684                       # What read queue length does an incoming req see
system.mem_ctrls3.rdQLenPdf::1                   6627                       # What read queue length does an incoming req see
system.mem_ctrls3.rdQLenPdf::2                   1109                       # What read queue length does an incoming req see
system.mem_ctrls3.rdQLenPdf::3                    268                       # What read queue length does an incoming req see
system.mem_ctrls3.rdQLenPdf::4                     87                       # What read queue length does an incoming req see
system.mem_ctrls3.rdQLenPdf::5                     37                       # What read queue length does an incoming req see
system.mem_ctrls3.rdQLenPdf::6                     24                       # What read queue length does an incoming req see
system.mem_ctrls3.rdQLenPdf::7                     23                       # What read queue length does an incoming req see
system.mem_ctrls3.rdQLenPdf::8                     14                       # What read queue length does an incoming req see
system.mem_ctrls3.rdQLenPdf::9                     13                       # What read queue length does an incoming req see
system.mem_ctrls3.rdQLenPdf::10                     9                       # What read queue length does an incoming req see
system.mem_ctrls3.rdQLenPdf::11                     6                       # What read queue length does an incoming req see
system.mem_ctrls3.rdQLenPdf::12                     4                       # What read queue length does an incoming req see
system.mem_ctrls3.rdQLenPdf::13                     4                       # What read queue length does an incoming req see
system.mem_ctrls3.rdQLenPdf::14                     3                       # What read queue length does an incoming req see
system.mem_ctrls3.rdQLenPdf::15                     1                       # What read queue length does an incoming req see
system.mem_ctrls3.rdQLenPdf::16                     1                       # What read queue length does an incoming req see
system.mem_ctrls3.rdQLenPdf::17                     0                       # What read queue length does an incoming req see
system.mem_ctrls3.rdQLenPdf::18                     0                       # What read queue length does an incoming req see
system.mem_ctrls3.rdQLenPdf::19                     0                       # What read queue length does an incoming req see
system.mem_ctrls3.rdQLenPdf::20                     0                       # What read queue length does an incoming req see
system.mem_ctrls3.rdQLenPdf::21                     0                       # What read queue length does an incoming req see
system.mem_ctrls3.rdQLenPdf::22                     0                       # What read queue length does an incoming req see
system.mem_ctrls3.rdQLenPdf::23                     0                       # What read queue length does an incoming req see
system.mem_ctrls3.rdQLenPdf::24                     0                       # What read queue length does an incoming req see
[...]
system.ruby.L2Cache_Controller.MT_IIB.L1_UPGRADE::total          338                      
system.ruby.L2Cache_Controller.MT_IIB.WB_Data |        6638      3.25%      3.25% |        6393      3.13%      6.38% |        6310      3.09%      9.47% |        6324      3.10%     12.57% |        6477      3.17%     15.74% |        6225      3.05%     18.79% |        6419      3.14%     21.93% |        6478      3.17%     25.10% |        6500      3.18%     28.29% |        6362      3.12%     31.40% |        6344      3.11%     34.51% |        6356      3.11%     37.62% |        6506      3.19%     40.81% |        6366      3.12%     43.93% |        6398      3.13%     47.06% |        6308      3.09%     50.15% |        6629      3.25%     53.40% |        6439      3.15%     56.55% |        6349      3.11%     59.66% |        6283      3.08%     62.73% |        6452      3.16%     65.89% |        6343      3.11%     69.00% |        6313      3.09%     72.09% |        6328      3.10%     75.19% |        6434      3.15%     78.34% |        6312      3.09%     81.43% |        6251      3.06%     84.49% |        6315      3.09%     87.59% |        6447      3.16%     90.74% |        6299      3.08%     93.83% |        6308      3.09%     96.92% |        6294      3.08%    100.00%
system.ruby.L2Cache_Controller.MT_IIB.WB_Data::total       204200                      
system.ruby.L2Cache_Controller.MT_IIB.WB_Data_clean |         423      3.25%      3.25% |         418      3.21%      6.47% |         404      3.11%      9.57% |         408      3.14%     12.71% |         402      3.09%     15.80% |         402      3.09%     18.89% |         417      3.21%     22.09% |         408      3.14%     25.23% |         421      3.24%     28.47% |         397      3.05%     31.52% |         411      3.16%     34.68% |         417      3.21%     37.88% |         405      3.11%     41.00% |         401      3.08%     44.08% |         407      3.13%     47.21% |         405      3.11%     50.32% |         406      3.12%     53.44% |         417      3.21%     56.65% |         398      3.06%     59.71% |         405      3.11%     62.82% |         413      3.17%     66.00% |         386      2.97%     68.97% |         409      3.14%     72.11% |         398      3.06%     75.17% |         410      3.15%     78.32% |         404      3.11%     81.43% |         403      3.10%     84.52% |         402      3.09%     87.62% |         402      3.09%     90.71% |         408      3.14%     93.84% |         392      3.01%     96.86% |         409      3.14%    100.00%
system.ruby.L2Cache_Controller.MT_IIB.WB_Data_clean::total        13008                      
system.ruby.L2Cache_Controller.MT_IIB.Unblock |          25      0.60%      0.60% |          40      0.96%      1.56% |         156      3.74%      5.30% |         138      3.31%      8.61% |         204      4.89%     13.50% |         280      6.71%     20.21% |          28      0.67%     20.88% |          22      0.53%     21.41% |         154      3.69%     25.10% |         144      3.45%     28.55% |          99      2.37%     30.93% |         128      3.07%     34.00% |         142      3.40%     37.40% |         105      2.52%     39.92% |          89      2.13%     42.05% |         152      3.64%     45.70% |          25      0.60%     46.30% |          29      0.70%     46.99% |         121      2.90%     49.89% |         160      3.84%     53.73% |         176      4.22%     57.95% |         139      3.33%     61.28% |         149      3.57%     64.85% |         132      3.16%     68.02% |         185      4.44%     72.45% |         154      3.69%     76.14% |         161      3.86%     80.00% |          97      2.33%     82.33% |         214      5.13%     87.46% |         183      4.39%     91.85% |         191      4.58%     96.43% |         149      3.57%    100.00%
system.ruby.L2Cache_Controller.MT_IIB.Unblock::total         4171                      
system.ruby.L2Cache_Controller.MT_IB.L1_GETS |           0      0.00%      0.00% |           0      0.00%      0.00% |           0      0.00%      0.00% |           0      0.00%      0.00% |           0      0.00%      0.00% |           0      0.00%      0.00% |           0      0.00%      0.00% |           0      0.00%      0.00% |           0      0.00%      0.00% |           0      0.00%      0.00% |           0      0.00%      0.00% |           0      0.00%      0.00% |           0      0.00%      0.00% |           0      0.00%      0.00% |           0      0.00%      0.00% |           1     25.00%     25.00% |           0      0.00%     25.00% |           0      0.00%     25.00% |           0      0.00%     25.00% |           0      0.00%     25.00% |           1     25.00%     50.00% |           0      0.00%     50.00% |           1     25.00%     75.00% |           0      0.00%     75.00% |           0      0.00%     75.00% |           0      0.00%     75.00% |           0      0.00%     75.00% |           0      0.00%     75.00% |           0      0.00%     75.00% |           0      0.00%     75.00% |           1     25.00%    100.00% |           0      0.00%    100.00%
system.ruby.L2Cache_Controller.MT_IB.L1_GETS::total            4                      
system.ruby.L2Cache_Controller.MT_IB.L1_UPGRADE |           0      0.00%      0.00% |           0      0.00%      0.00% |           0      0.00%      0.00% |           0      0.00%      0.00% |           0      0.00%      0.00% |           0      0.00%      0.00% |           0      0.00%      0.00% |           0      0.00%      0.00% |           0      0.00%      0.00% |           0      0.00%      0.00% |           0      0.00%      0.00% |           0      0.00%      0.00% |           0      0.00%      0.00% |           0      0.00%      0.00% |           0      0.00%      0.00% |           0      0.00%      0.00% |           0      0.00%      0.00% |           0      0.00%      0.00% |           0      0.00%      0.00% |           0      0.00%      0.00% |           1    100.00%    100.00% |           0      0.00%    100.00% |           0      0.00%    100.00% |           0      0.00%    100.00% |           0      0.00%    100.00% |           0      0.00%    100.00% |           0      0.00%    100.00% |           0      0.00%    100.00% |           0      0.00%    100.00% |           0      0.00%    100.00% |           0      0.00%    100.00% |           0      0.00%    100.00%
system.ruby.L2Cache_Controller.MT_IB.L1_UPGRADE::total            1                      
system.ruby.L2Cache_Controller.MT_IB.WB_Data |          24      0.60%      0.60% |          39      0.98%      1.58% |         149      3.75%      5.33% |         131      3.30%      8.63% |         190      4.78%     13.41% |         269      6.77%     20.18% |          27      0.68%     20.86% |          20      0.50%     21.36% |         146      3.67%     25.03% |         140      3.52%     28.55% |          93      2.34%     30.89% |         126      3.17%     34.06% |         139      3.50%     37.56% |         102      2.57%     40.13% |          84      2.11%     42.24% |         142      3.57%     45.81% |          23      0.58%     46.39% |          29      0.73%     47.12% |         114      2.87%     49.99% |         152      3.82%     53.81% |         167      4.20%     58.01% |         134      3.37%     61.38% |         139      3.50%     64.88% |         125      3.14%     68.03% |         177      4.45%     72.48% |         144      3.62%     76.10% |         157      3.95%     80.05% |          90      2.26%     82.31% |         203      5.11%     87.42% |         174      4.38%     91.80% |         182      4.58%     96.38% |         144      3.62%    100.00%
system.ruby.L2Cache_Controller.MT_IB.WB_Data::total         3975                      
system.ruby.L2Cache_Controller.MT_IB.WB_Data_clean |           1      0.51%      0.51% |           1      0.51%      1.02% |           7      3.57%      4.59% |           7      3.57%      8.16% |          14      7.14%     15.31% |          11      5.61%     20.92% |           1      0.51%     21.43% |           2      1.02%     22.45% |           8      4.08%     26.53% |           4      2.04%     28.57% |           6      3.06%     31.63% |           2      1.02%     32.65% |           3      1.53%     34.18% |           3      1.53%     35.71% |           5      2.55%     38.27% |          10      5.10%     43.37% |           2      1.02%     44.39% |           0      0.00%     44.39% |           7      3.57%     47.96% |           8      4.08%     52.04% |           9      4.59%     56.63% |           5      2.55%     59.18% |          10      5.10%     64.29% |           7      3.57%     67.86% |           8      4.08%     71.94% |          10      5.10%     77.04% |           4      2.04%     79.08% |           7      3.57%     82.65% |          11      5.61%     88.27% |           9      4.59%     92.86% |           9      4.59%     97.45% |           5      2.55%    100.00%
system.ruby.L2Cache_Controller.MT_IB.WB_Data_clean::total          196                      
system.ruby.L2Cache_Controller.MT_SB.L1_GETS |          36      2.97%      2.97% |          40      3.30%      6.27% |          41      3.38%      9.65% |          35      2.89%     12.54% |          26      2.15%     14.69% |          44      3.63%     18.32% |          38      3.14%     21.45% |          34      2.81%     24.26% |          25      2.06%     26.32% |          34      2.81%     29.13% |          41      3.38%     32.51% |          40      3.30%     35.81% |          33      2.72%     38.53% |          45      3.71%     42.24% |          35      2.89%     45.13% |          39      3.22%     48.35% |          46      3.80%     52.15% |          43      3.55%     55.69% |          40      3.30%     58.99% |          38      3.14%     62.13% |          43      3.55%     65.68% |          34      2.81%     68.48% |          40      3.30%     71.78% |          37      3.05%     74.83% |          32      2.64%     77.48% |          41      3.38%     80.86% |          42      3.47%     84.32% |          39      3.22%     87.54% |          33      2.72%     90.26% |          51      4.21%     94.47% |          35      2.89%     97.36% |          32      2.64%    100.00%
system.ruby.L2Cache_Controller.MT_SB.L1_GETS::total         1212                      
system.ruby.L2Cache_Controller.MT_SB.L1_GETX |          14      2.52%      2.52% |          15      2.70%      5.22% |          11      1.98%      7.19% |          16      2.88%     10.07% |           7      1.26%     11.33% |          19      3.42%     14.75% |          11      1.98%     16.73% |          21      3.78%     20.50% |          17      3.06%     23.56% |          14      2.52%     26.08% |          12      2.16%     28.24% |          20      3.60%     31.83% |          26      4.68%     36.51% |          22      3.96%     40.47% |          13      2.34%     42.81% |          19      3.42%     46.22% |          13      2.34%     48.56% |          21      3.78%     52.34% |          21      3.78%     56.12% |          19      3.42%     59.53% |          17      3.06%     62.59% |          14      2.52%     65.11% |          18      3.24%     68.35% |          21      3.78%     72.12% |          20      3.60%     75.72% |          22      3.96%     79.68% |          20      3.60%     83.27% |          16      2.88%     86.15% |          18      3.24%     89.39% |          16      2.88%     92.27% |          20      3.60%     95.86% |          23      4.14%    100.00%
system.ruby.L2Cache_Controller.MT_SB.L1_GETX::total          556                      
system.ruby.L2Cache_Controller.MT_SB.L1_UPGRADE |           8      3.12%      3.12% |           7      2.73%      5.86% |          13      5.08%     10.94% |           8      3.12%     14.06% |           5      1.95%     16.02% |           5      1.95%     17.97% |           8      3.12%     21.09% |           4      1.56%     22.66% |          10      3.91%     26.56% |           9      3.52%     30.08% |           6      2.34%     32.42% |           5      1.95%     34.38% |           9      3.52%     37.89% |           7      2.73%     40.62% |           8      3.12%     43.75% |           2      0.78%     44.53% |           9      3.52%     48.05% |           5      1.95%     50.00% |          12      4.69%     54.69% |          11      4.30%     58.98% |          13      5.08%     64.06% |           9      3.52%     67.58% |          11      4.30%     71.88% |           5      1.95%     73.83% |          10      3.91%     77.73% |           8      3.12%     80.86% |           9      3.52%     84.38% |           8      3.12%     87.50% |           4      1.56%     89.06% |          12      4.69%     93.75% |           5      1.95%     95.70% |          11      4.30%    100.00%
system.ruby.L2Cache_Controller.MT_SB.L1_UPGRADE::total          256                      
system.ruby.L2Cache_Controller.MT_SB.Unblock |        7061      3.25%      3.25% |        6811      3.14%      6.39% |        6714      3.09%      9.48% |        6732      3.10%     12.58% |        6879      3.17%     15.74% |        6627      3.05%     18.79% |        6836      3.15%     21.94% |        6886      3.17%     25.11% |        6921      3.19%     28.30% |        6759      3.11%     31.41% |        6755      3.11%     34.52% |        6773      3.12%     37.64% |        6911      3.18%     40.82% |        6767      3.12%     43.94% |        6805      3.13%     47.07% |        6713      3.09%     50.16% |        7035      3.24%     53.40% |        6856      3.16%     56.55% |        6747      3.11%     59.66% |        6688      3.08%     62.74% |        6865      3.16%     65.90% |        6729      3.10%     69.00% |        6722      3.09%     72.09% |        6726      3.10%     75.19% |        6844      3.15%     78.34% |        6716      3.09%     81.43% |        6654      3.06%     84.50% |        6717      3.09%     87.59% |        6849      3.15%     90.74% |        6707      3.09%     93.83% |        6700      3.08%     96.91% |        6703      3.09%    100.00%
system.ruby.L2Cache_Controller.MT_SB.Unblock::total       217208                      
system.ruby.SimicsNetworkPortInterface_Controller.MessageSend |      305828     17.58%     17.58% |      869870     50.00%     67.58% |      136050      7.82%     75.40% |      148023      8.51%     83.91% |      134544      7.73%     91.64% |      145425      8.36%    100.00% |           0      0.00%    100.00% |           0      0.00%    100.00% |           0      0.00%    100.00% |           0      0.00%    100.00% |           0      0.00%    100.00% |           0      0.00%    100.00% |           0      0.00%    100.00% |           0      0.00%    100.00% |           0      0.00%    100.00% |           0      0.00%    100.00% |           0      0.00%    100.00% |           0      0.00%    100.00% |           0      0.00%    100.00% |           0      0.00%    100.00% |           0      0.00%    100.00% |           0      0.00%    100.00% |           0      0.00%    100.00% |           0      0.00%    100.00% |           0      0.00%    100.00% |           0      0.00%    100.00% |           0      0.00%    100.00% |           0      0.00%    100.00% |           0      0.00%    100.00% |           0      0.00%    100.00% |           0      0.00%    100.00% |           0      0.00%    100.00%
system.ruby.SimicsNetworkPortInterface_Controller.MessageSend::total      1739740                      
system.ruby.SimicsNetworkPortInterface_Controller.MessageRecv |      305828     17.58%     17.58% |      869870     50.00%     67.58% |      136050      7.82%     75.40% |      148023      8.51%     83.91% |      134544      7.73%     91.64% |      145425      8.36%    100.00% |           0      0.00%    100.00% |           0      0.00%    100.00% |           0      0.00%    100.00% |           0      0.00%    100.00% |           0      0.00%    100.00% |           0      0.00%    100.00% |           0      0.00%    100.00% |           0      0.00%    100.00% |           0      0.00%    100.00% |           0      0.00%    100.00% |           0      0.00%    100.00% |           0      0.00%    100.00% |           0      0.00%    100.00% |           0      0.00%    100.00% |           0      0.00%    100.00% |           0      0.00%    100.00% |           0      0.00%    100.00% |           0      0.00%    100.00% |           0      0.00%    100.00% |           0      0.00%    100.00% |           0      0.00%    100.00% |           0      0.00%    100.00% |           0      0.00%    100.00% |           0      0.00%    100.00% |           0      0.00%    100.00% |           0      0.00%    100.00%
system.ruby.SimicsNetworkPortInterface_Controller.MessageRecv::total      1739740                      
system.ruby.SimicsNetworkPortInterface_Controller.A.MessageSend |      305828     17.58%     17.58% |      869870     50.00%     67.58% |      136050      7.82%     75.40% |      148023      8.51%     83.91% |      134544      7.73%     91.64% |      145425      8.36%    100.00% |           0      0.00%    100.00% |           0      0.00%    100.00% |           0      0.00%    100.00% |           0      0.00%    100.00% |           0      0.00%    100.00% |           0      0.00%    100.00% |           0      0.00%    100.00% |           0      0.00%    100.00% |           0      0.00%    100.00% |           0      0.00%    100.00% |           0      0.00%    100.00% |           0      0.00%    100.00% |           0      0.00%    100.00% |           0      0.00%    100.00% |           0      0.00%    100.00% |           0      0.00%    100.00% |           0      0.00%    100.00% |           0      0.00%    100.00% |           0      0.00%    100.00% |           0      0.00%    100.00% |           0      0.00%    100.00% |           0      0.00%    100.00% |           0      0.00%    100.00% |           0      0.00%    100.00% |           0      0.00%    100.00% |           0      0.00%    100.00%
system.ruby.SimicsNetworkPortInterface_Controller.A.MessageSend::total      1739740                      
system.ruby.SimicsNetworkPortInterface_Controller.A.MessageRecv |      305828     17.58%     17.58% |      869870     50.00%     67.58% |      136050      7.82%     75.40% |      148023      8.51%     83.91% |      134544      7.73%     91.64% |      145425      8.36%    100.00% |           0      0.00%    100.00% |           0      0.00%    100.00% |           0      0.00%    100.00% |           0      0.00%    100.00% |           0      0.00%    100.00% |           0      0.00%    100.00% |           0      0.00%    100.00% |           0      0.00%    100.00% |           0      0.00%    100.00% |           0      0.00%    100.00% |           0      0.00%    100.00% |           0      0.00%    100.00% |           0      0.00%    100.00% |           0      0.00%    100.00% |           0      0.00%    100.00% |           0      0.00%    100.00% |           0      0.00%    100.00% |           0      0.00%    100.00% |           0      0.00%    100.00% |           0      0.00%    100.00% |           0      0.00%    100.00% |           0      0.00%    100.00% |           0      0.00%    100.00% |           0      0.00%    100.00% |           0      0.00%    100.00% |           0      0.00%    100.00%
system.ruby.SimicsNetworkPortInterface_Controller.A.MessageRecv::total      1739740                      
system.switch_cpus.kern.inst.arm                    0                       # number of arm instructions executed
system.switch_cpus.kern.inst.quiesce                0                       # number of quiesce instructions executed

---------- End Simulation Statistics   ----------
