
---------- Begin Simulation Statistics ----------
sim_seconds                                  0.153831                       # Number of seconds simulated
sim_ticks                                153831316500                       # Number of ticks simulated
final_tick                               5329999395000                       # Number of ticks from beginning of simulation (restored from checkpoints and never reset)
sim_freq                                 1000000000000                       # Frequency of simulated ticks
host_inst_rate                                  42543                       # Simulator instruction rate (inst/s)
host_op_rate                                    81026                       # Simulator op (including micro ops) rate (op/s)
host_tick_rate                              101499794                       # Simulator tick rate (ticks/s)
host_mem_usage                                4099812                       # Number of bytes of host memory used
host_seconds                                  1515.58                       # Real time elapsed on the host
sim_insts                                    64476999                       # Number of instructions simulated
sim_ops                                     122801926                       # Number of ops (including micro ops) simulated
system.voltage_domain.voltage                       1                       # Voltage in Volts
system.clk_domain.clock                           500                       # Clock period in ticks
system.mem_ctrls0.bytes_read::ruby.dir_cntrl0     25324224                       # Number of bytes read from this memory
system.mem_ctrls0.bytes_read::total          25324224                       # Number of bytes read from this memory
system.mem_ctrls0.bytes_written::ruby.dir_cntrl0     21445184                       # Number of bytes written to this memory
system.mem_ctrls0.bytes_written::total       21445184                       # Number of bytes written to this memory
system.mem_ctrls0.num_reads::ruby.dir_cntrl0       395691                       # Number of read requests responded to by this memory
system.mem_ctrls0.num_reads::total             395691                       # Number of read requests responded to by this memory
system.mem_ctrls0.num_writes::ruby.dir_cntrl0       335081                       # Number of write requests responded to by this memory
system.mem_ctrls0.num_writes::total            335081                       # Number of write requests responded to by this memory
system.mem_ctrls0.bw_read::ruby.dir_cntrl0    164623333                       # Total read bandwidth from this memory (bytes/s)
system.mem_ctrls0.bw_read::total            164623333                       # Total read bandwidth from this memory (bytes/s)
system.mem_ctrls0.bw_write::ruby.dir_cntrl0    139407141                       # Write bandwidth from this memory (bytes/s)
system.mem_ctrls0.bw_write::total           139407141                       # Write bandwidth from this memory (bytes/s)
system.mem_ctrls0.bw_total::ruby.dir_cntrl0    304030474                       # Total bandwidth to/from this memory (bytes/s)
system.mem_ctrls0.bw_total::total           304030474                       # Total bandwidth to/from this memory (bytes/s)
system.mem_ctrls0.readReqs                     395692                       # Number of read requests accepted
system.mem_ctrls0.writeReqs                    335081                       # Number of write requests accepted
system.mem_ctrls0.readBursts                   395692                       # Number of DRAM read bursts, including those serviced by the write queue
system.mem_ctrls0.writeBursts                  335081                       # Number of DRAM write bursts, including those merged in the write queue
system.mem_ctrls0.bytesReadDRAM              25323392                       # Total number of bytes read from DRAM
system.mem_ctrls0.bytesReadWrQ                    896                       # Total number of bytes read from write queue
system.mem_ctrls0.bytesWritten               21444928                       # Total number of bytes written to DRAM
system.mem_ctrls0.bytesReadSys               25324288                       # Total read bytes from the system interface side
system.mem_ctrls0.bytesWrittenSys            21445184                       # Total written bytes from the system interface side
system.mem_ctrls0.servicedByWrQ                    14                       # Number of DRAM read bursts serviced by the write queue
system.mem_ctrls0.mergedWrBursts                    0                       # Number of DRAM write bursts merged with an existing one
system.mem_ctrls0.neitherReadNorWriteReqs            0                       # Number of requests that are neither read nor write
system.mem_ctrls0.perBankRdBursts::0            24410                       # Per bank write bursts
system.mem_ctrls0.perBankRdBursts::1            25133                       # Per bank write bursts
system.mem_ctrls0.perBankRdBursts::2            24701                       # Per bank write bursts
system.mem_ctrls0.perBankRdBursts::3            24997                       # Per bank write bursts
system.mem_ctrls0.perBankRdBursts::4            24629                       # Per bank write bursts
system.mem_ctrls0.perBankRdBursts::5            25009                       # Per bank write bursts
system.mem_ctrls0.perBankRdBursts::6            25057                       # Per bank write bursts
system.mem_ctrls0.perBankRdBursts::7            24796                       # Per bank write bursts
system.mem_ctrls0.perBankRdBursts::8            24693                       # Per bank write bursts
system.mem_ctrls0.perBankRdBursts::9            24829                       # Per bank write bursts
system.mem_ctrls0.perBankRdBursts::10           24636                       # Per bank write bursts
system.mem_ctrls0.perBankRdBursts::11           25137                       # Per bank write bursts
system.mem_ctrls0.perBankRdBursts::12           24376                       # Per bank write bursts
system.mem_ctrls0.perBankRdBursts::13           24292                       # Per bank write bursts
system.mem_ctrls0.perBankRdBursts::14           24455                       # Per bank write bursts
system.mem_ctrls0.perBankRdBursts::15           24528                       # Per bank write bursts
system.mem_ctrls0.perBankWrBursts::0            20964                       # Per bank write bursts
system.mem_ctrls0.perBankWrBursts::1            20887                       # Per bank write bursts
system.mem_ctrls0.perBankWrBursts::2            20872                       # Per bank write bursts
system.mem_ctrls0.perBankWrBursts::3            21163                       # Per bank write bursts
system.mem_ctrls0.perBankWrBursts::4            20798                       # Per bank write bursts
system.mem_ctrls0.perBankWrBursts::5            21086                       # Per bank write bursts
system.mem_ctrls0.perBankWrBursts::6            21108                       # Per bank write bursts
system.mem_ctrls0.perBankWrBursts::7            21052                       # Per bank write bursts
system.mem_ctrls0.perBankWrBursts::8            21137                       # Per bank write bursts
system.mem_ctrls0.perBankWrBursts::9            20929                       # Per bank write bursts
system.mem_ctrls0.perBankWrBursts::10           20851                       # Per bank write bursts
system.mem_ctrls0.perBankWrBursts::11           20867                       # Per bank write bursts
system.mem_ctrls0.perBankWrBursts::12           20665                       # Per bank write bursts
system.mem_ctrls0.perBankWrBursts::13           20923                       # Per bank write bursts
system.mem_ctrls0.perBankWrBursts::14           20949                       # Per bank write bursts
system.mem_ctrls0.perBankWrBursts::15           20826                       # Per bank write bursts
system.mem_ctrls0.numRdRetry                   158662                       # Number of times read queue was full causing retry
system.mem_ctrls0.numWrRetry                    17033                       # Number of times write queue was full causing retry
system.mem_ctrls0.totGap                 153831053000                       # Total gap between requests
system.mem_ctrls0.readPktSize::0                    0                       # Read request sizes (log2)
system.mem_ctrls0.readPktSize::1                    0                       # Read request sizes (log2)
system.mem_ctrls0.readPktSize::2                    0                       # Read request sizes (log2)
system.mem_ctrls0.readPktSize::3                    0                       # Read request sizes (log2)
system.mem_ctrls0.readPktSize::4                    0                       # Read request sizes (log2)
system.mem_ctrls0.readPktSize::5                    0                       # Read request sizes (log2)
system.mem_ctrls0.readPktSize::6               395692                       # Read request sizes (log2)
system.mem_ctrls0.writePktSize::0                   0                       # Write request sizes (log2)
system.mem_ctrls0.writePktSize::1                   0                       # Write request sizes (log2)
system.mem_ctrls0.writePktSize::2                   0                       # Write request sizes (log2)
system.mem_ctrls0.writePktSize::3                   0                       # Write request sizes (log2)
system.mem_ctrls0.writePktSize::4                   0                       # Write request sizes (log2)
system.mem_ctrls0.writePktSize::5                   0                       # Write request sizes (log2)
system.mem_ctrls0.writePktSize::6              335081                       # Write request sizes (log2)
system.mem_ctrls0.rdQLenPdf::0                 204491                       # What read queue length does an incoming req see
system.mem_ctrls0.rdQLenPdf::1                   5705                       # What read queue length does an incoming req see
system.mem_ctrls0.rdQLenPdf::2                   3123                       # What read queue length does an incoming req see
system.mem_ctrls0.rdQLenPdf::3                    534                       # What read queue length does an incoming req see
system.mem_ctrls0.rdQLenPdf::4                    564                       # What read queue length does an incoming req see
system.mem_ctrls0.rdQLenPdf::5                    630                       # What read queue length does an incoming req see
system.mem_ctrls0.rdQLenPdf::6                    627                       # What read queue length does an incoming req see
system.mem_ctrls0.rdQLenPdf::7                    598                       # What read queue length does an incoming req see
system.mem_ctrls0.rdQLenPdf::8                    578                       # What read queue length does an incoming req see
system.mem_ctrls0.rdQLenPdf::9                    611                       # What read queue length does an incoming req see
system.mem_ctrls0.rdQLenPdf::10                   594                       # What read queue length does an incoming req see
system.mem_ctrls0.rdQLenPdf::11                   605                       # What read queue length does an incoming req see
system.mem_ctrls0.rdQLenPdf::12                   596                       # What read queue length does an incoming req see
system.mem_ctrls0.rdQLenPdf::13                   608                       # What read queue length does an incoming req see
system.mem_ctrls0.rdQLenPdf::14                   585                       # What read queue length does an incoming req see
system.mem_ctrls0.rdQLenPdf::15                   571                       # What read queue length does an incoming req see
system.mem_ctrls0.rdQLenPdf::16                   617                       # What read queue length does an incoming req see
system.mem_ctrls0.rdQLenPdf::17                   610                       # What read queue length does an incoming req see
system.mem_ctrls0.rdQLenPdf::18                   652                       # What read queue length does an incoming req see
system.mem_ctrls0.rdQLenPdf::19                   611                       # What read queue length does an incoming req see
system.mem_ctrls0.rdQLenPdf::20                   629                       # What read queue length does an incoming req see
system.mem_ctrls0.rdQLenPdf::21                   610                       # What read queue length does an incoming req see
system.mem_ctrls0.rdQLenPdf::22                   588                       # What read queue length does an incoming req see
system.mem_ctrls0.rdQLenPdf::23                   641                       # What read queue length does an incoming req see
system.mem_ctrls0.rdQLenPdf::24                   673                       # What read queue length does an incoming req see
system.mem_ctrls0.rdQLenPdf::25                   736                       # What read queue length does an incoming req see
system.mem_ctrls0.rdQLenPdf::26                   754                       # What read queue length does an incoming req see
system.mem_ctrls0.rdQLenPdf::27                   772                       # What read queue length does an incoming req see
system.mem_ctrls0.rdQLenPdf::28                   835                       # What read queue length does an incoming req see
system.mem_ctrls0.rdQLenPdf::29                  1092                       # What read queue length does an incoming req see
system.mem_ctrls0.rdQLenPdf::30                  1739                       # What read queue length does an incoming req see
system.mem_ctrls0.rdQLenPdf::31                163099                       # What read queue length does an incoming req see
system.mem_ctrls0.wrQLenPdf::0                  48647                       # What write queue length does an incoming req see
system.mem_ctrls0.wrQLenPdf::1                  50240                       # What write queue length does an incoming req see
system.mem_ctrls0.wrQLenPdf::2                  51348                       # What write queue length does an incoming req see
system.mem_ctrls0.wrQLenPdf::3                  51757                       # What write queue length does an incoming req see
system.mem_ctrls0.wrQLenPdf::4                  53551                       # What write queue length does an incoming req see
system.mem_ctrls0.wrQLenPdf::5                  16893                       # What write queue length does an incoming req see
system.mem_ctrls0.wrQLenPdf::6                  23468                       # What write queue length does an incoming req see
system.mem_ctrls0.wrQLenPdf::7                  39177                       # What write queue length does an incoming req see
system.mem_ctrls0.bytesPerActivate::samples       238066                       # Bytes accessed per row activation
system.mem_ctrls0.bytesPerActivate::mean   196.443810                       # Bytes accessed per row activation
system.mem_ctrls0.bytesPerActivate::gmean   151.309367                       # Bytes accessed per row activation
system.mem_ctrls0.bytesPerActivate::stdev   147.653071                       # Bytes accessed per row activation
system.mem_ctrls0.bytesPerActivate::0-127        82923     34.83%     34.83% # Bytes accessed per row activation
system.mem_ctrls0.bytesPerActivate::128-255        64735     27.19%     62.02% # Bytes accessed per row activation
system.mem_ctrls0.bytesPerActivate::256-383        71481     30.03%     92.05% # Bytes accessed per row activation
system.mem_ctrls0.bytesPerActivate::384-511         9694      4.07%     96.12% # Bytes accessed per row activation
system.mem_ctrls0.bytesPerActivate::512-639         4806      2.02%     98.14% # Bytes accessed per row activation
system.mem_ctrls0.bytesPerActivate::640-767         1896      0.80%     98.94% # Bytes accessed per row activation
system.mem_ctrls0.bytesPerActivate::768-895          964      0.40%     99.34% # Bytes accessed per row activation
system.mem_ctrls0.bytesPerActivate::896-1023          646      0.27%     99.61% # Bytes accessed per row activation
system.mem_ctrls0.bytesPerActivate::1024-1151          921      0.39%    100.00% # Bytes accessed per row activation
system.mem_ctrls0.bytesPerActivate::total       238066                       # Bytes accessed per row activation
system.mem_ctrls0.rdPerTurnAround::samples        49806                       # Reads before turning the bus around for writes
system.mem_ctrls0.rdPerTurnAround::mean      7.944204                       # Reads before turning the bus around for writes
system.mem_ctrls0.rdPerTurnAround::stdev    18.958892                       # Reads before turning the bus around for writes
system.mem_ctrls0.rdPerTurnAround::0-127        49798     99.98%     99.98% # Reads before turning the bus around for writes
system.mem_ctrls0.rdPerTurnAround::128-255            7      0.01%    100.00% # Reads before turning the bus around for writes
system.mem_ctrls0.rdPerTurnAround::3968-4095            1      0.00%    100.00% # Reads before turning the bus around for writes
system.mem_ctrls0.rdPerTurnAround::total        49806                       # Reads before turning the bus around for writes
system.mem_ctrls0.wrPerTurnAround::samples        49806                       # Writes before turning the bus around for reads
system.mem_ctrls0.wrPerTurnAround::mean      6.727643                       # Writes before turning the bus around for reads
system.mem_ctrls0.wrPerTurnAround::gmean     6.104421                       # Writes before turning the bus around for reads
system.mem_ctrls0.wrPerTurnAround::stdev     3.555236                       # Writes before turning the bus around for reads
system.mem_ctrls0.wrPerTurnAround::4-7          40111     80.53%     80.53% # Writes before turning the bus around for reads
system.mem_ctrls0.wrPerTurnAround::8-11          1412      2.83%     83.37% # Writes before turning the bus around for reads
system.mem_ctrls0.wrPerTurnAround::12-15         5897     11.84%     95.21% # Writes before turning the bus around for reads
system.mem_ctrls0.wrPerTurnAround::16-19         2386      4.79%    100.00% # Writes before turning the bus around for reads
system.mem_ctrls0.wrPerTurnAround::total        49806                       # Writes before turning the bus around for reads
system.mem_ctrls0.totQLat                 69534255481                       # Total ticks spent queuing
system.mem_ctrls0.totMemAccLat            76953217981                       # Total ticks spent from burst creation until serviced by the DRAM
system.mem_ctrls0.totBusLat                1978390000                       # Total ticks spent in databus transfers
system.mem_ctrls0.avgQLat                   175734.45                       # Average queueing delay per DRAM burst
system.mem_ctrls0.avgBusLat                   5000.00                       # Average bus latency per DRAM burst
system.mem_ctrls0.avgMemAccLat              194484.45                       # Average memory access latency per DRAM burst
system.mem_ctrls0.avgRdBW                      164.62                       # Average DRAM read bandwidth in MiByte/s
system.mem_ctrls0.avgWrBW                      139.41                       # Average achieved write bandwidth in MiByte/s
system.mem_ctrls0.avgRdBWSys                   164.62                       # Average system read bandwidth in MiByte/s
system.mem_ctrls0.avgWrBWSys                   139.41                       # Average system write bandwidth in MiByte/s
system.mem_ctrls0.peakBW                     12800.00                       # Theoretical peak bandwidth in MiByte/s
system.mem_ctrls0.busUtil                        2.38                       # Data bus utilization in percentage
system.mem_ctrls0.busUtilRead                    1.29                       # Data bus utilization in percentage for reads
system.mem_ctrls0.busUtilWrite                   1.09                       # Data bus utilization in percentage for writes
system.mem_ctrls0.avgRdQLen                      1.46                       # Average read queue length when enqueuing
system.mem_ctrls0.avgWrQLen                      2.99                       # Average write queue length when enqueuing
system.mem_ctrls0.readRowHits                  284616                       # Number of row buffer hits during reads
system.mem_ctrls0.writeRowHits                 208060                       # Number of row buffer hits during writes
system.mem_ctrls0.readRowHitRate                71.93                       # Row buffer hit rate for reads
system.mem_ctrls0.writeRowHitRate               62.09                       # Row buffer hit rate for writes
system.mem_ctrls0.avgGap                    210504.57                       # Average gap between requests
system.mem_ctrls0.pageHitRate                   67.42                       # Row buffer hit rate, read and write combined
system.mem_ctrls0.memoryStateTime::IDLE   26565825750                       # Time in different power states
system.mem_ctrls0.memoryStateTime::REF     5136560000                       # Time in different power states
system.mem_ctrls0.memoryStateTime::PRE_PDN            0                       # Time in different power states
system.mem_ctrls0.memoryStateTime::ACT   122123072750                       # Time in different power states
system.mem_ctrls0.memoryStateTime::ACT_PDN            0                       # Time in different power states
system.mem_ctrls0.actEnergy::0              906005520                       # Energy for activate commands per rank (pJ)
system.mem_ctrls0.actEnergy::1              893365200                       # Energy for activate commands per rank (pJ)
system.mem_ctrls0.preEnergy::0              494348250                       # Energy for precharge commands per rank (pJ)
system.mem_ctrls0.preEnergy::1              487451250                       # Energy for precharge commands per rank (pJ)
system.mem_ctrls0.readEnergy::0            1549314000                       # Energy for read commands per rank (pJ)
system.mem_ctrls0.readEnergy::1            1536085200                       # Energy for read commands per rank (pJ)
system.mem_ctrls0.writeEnergy::0           1087985520                       # Energy for write commands per rank (pJ)
system.mem_ctrls0.writeEnergy::1           1082730240                       # Energy for write commands per rank (pJ)
system.mem_ctrls0.refreshEnergy::0        10047111360                       # Energy for refresh commands per rank (pJ)
system.mem_ctrls0.refreshEnergy::1        10047111360                       # Energy for refresh commands per rank (pJ)
system.mem_ctrls0.actBackEnergy::0        61123758480                       # Energy for active background per rank (pJ)
system.mem_ctrls0.actBackEnergy::1        60866229915                       # Energy for active background per rank (pJ)
system.mem_ctrls0.preBackEnergy::0        38677935000                       # Energy for precharge background per rank (pJ)
system.mem_ctrls0.preBackEnergy::1        38903837250                       # Energy for precharge background per rank (pJ)
system.mem_ctrls0.totalEnergy::0         113886458130                       # Total energy per rank (pJ)
system.mem_ctrls0.totalEnergy::1         113816810415                       # Total energy per rank (pJ)
system.mem_ctrls0.averagePower::0          740.361636                       # Core power per rank (mW)
system.mem_ctrls0.averagePower::1          739.908865                       # Core power per rank (mW)
system.mem_ctrls1.bytes_read::ruby.dir_cntrl1     24519424                       # Number of bytes read from this memory
system.mem_ctrls1.bytes_read::total          24519424                       # Number of bytes read from this memory
system.mem_ctrls1.bytes_written::ruby.dir_cntrl1     20684480                       # Number of bytes written to this memory
system.mem_ctrls1.bytes_written::total       20684480                       # Number of bytes written to this memory
system.mem_ctrls1.num_reads::ruby.dir_cntrl1       383116                       # Number of read requests responded to by this memory
system.mem_ctrls1.num_reads::total             383116                       # Number of read requests responded to by this memory
system.mem_ctrls1.num_writes::ruby.dir_cntrl1       323195                       # Number of write requests responded to by this memory
system.mem_ctrls1.num_writes::total            323195                       # Number of write requests responded to by this memory
system.mem_ctrls1.bw_read::ruby.dir_cntrl1    159391628                       # Total read bandwidth from this memory (bytes/s)
system.mem_ctrls1.bw_read::total            159391628                       # Total read bandwidth from this memory (bytes/s)
system.mem_ctrls1.bw_write::ruby.dir_cntrl1    134462088                       # Write bandwidth from this memory (bytes/s)
system.mem_ctrls1.bw_write::total           134462088                       # Write bandwidth from this memory (bytes/s)
system.mem_ctrls1.bw_total::ruby.dir_cntrl1    293853716                       # Total bandwidth to/from this memory (bytes/s)
system.mem_ctrls1.bw_total::total           293853716                       # Total bandwidth to/from this memory (bytes/s)
system.mem_ctrls1.readReqs                     383116                       # Number of read requests accepted
system.mem_ctrls1.writeReqs                    323195                       # Number of write requests accepted
system.mem_ctrls1.readBursts                   383116                       # Number of DRAM read bursts, including those serviced by the write queue
system.mem_ctrls1.writeBursts                  323195                       # Number of DRAM write bursts, including those merged in the write queue
system.mem_ctrls1.bytesReadDRAM              24518592                       # Total number of bytes read from DRAM
system.mem_ctrls1.bytesReadWrQ                    832                       # Total number of bytes read from write queue
system.mem_ctrls1.bytesWritten               20684352                       # Total number of bytes written to DRAM
system.mem_ctrls1.bytesReadSys               24519424                       # Total read bytes from the system interface side
system.mem_ctrls1.bytesWrittenSys            20684480                       # Total written bytes from the system interface side
system.mem_ctrls1.servicedByWrQ                    13                       # Number of DRAM read bursts serviced by the write queue
system.mem_ctrls1.mergedWrBursts                    0                       # Number of DRAM write bursts merged with an existing one
system.mem_ctrls1.neitherReadNorWriteReqs            0                       # Number of requests that are neither read nor write
system.mem_ctrls1.perBankRdBursts::0            23652                       # Per bank write bursts
system.mem_ctrls1.perBankRdBursts::1            24340                       # Per bank write bursts
system.mem_ctrls1.perBankRdBursts::2            23907                       # Per bank write bursts
system.mem_ctrls1.perBankRdBursts::3            24204                       # Per bank write bursts
system.mem_ctrls1.perBankRdBursts::4            23868                       # Per bank write bursts
system.mem_ctrls1.perBankRdBursts::5            24222                       # Per bank write bursts
system.mem_ctrls1.perBankRdBursts::6            24267                       # Per bank write bursts
system.mem_ctrls1.perBankRdBursts::7            24041                       # Per bank write bursts
system.mem_ctrls1.perBankRdBursts::8            23915                       # Per bank write bursts
system.mem_ctrls1.perBankRdBursts::9            24040                       # Per bank write bursts
system.mem_ctrls1.perBankRdBursts::10           23817                       # Per bank write bursts
system.mem_ctrls1.perBankRdBursts::11           24376                       # Per bank write bursts
system.mem_ctrls1.perBankRdBursts::12           23594                       # Per bank write bursts
system.mem_ctrls1.perBankRdBursts::13           23497                       # Per bank write bursts
system.mem_ctrls1.perBankRdBursts::14           23598                       # Per bank write bursts
system.mem_ctrls1.perBankRdBursts::15           23765                       # Per bank write bursts
system.mem_ctrls1.perBankWrBursts::0            20230                       # Per bank write bursts
system.mem_ctrls1.perBankWrBursts::1            20162                       # Per bank write bursts
system.mem_ctrls1.perBankWrBursts::2            20141                       # Per bank write bursts
system.mem_ctrls1.perBankWrBursts::3            20427                       # Per bank write bursts
system.mem_ctrls1.perBankWrBursts::4            20065                       # Per bank write bursts
system.mem_ctrls1.perBankWrBursts::5            20356                       # Per bank write bursts
system.mem_ctrls1.perBankWrBursts::6            20355                       # Per bank write bursts
system.mem_ctrls1.perBankWrBursts::7            20302                       # Per bank write bursts
system.mem_ctrls1.perBankWrBursts::8            20386                       # Per bank write bursts
system.mem_ctrls1.perBankWrBursts::9            20182                       # Per bank write bursts
system.mem_ctrls1.perBankWrBursts::10           20109                       # Per bank write bursts
system.mem_ctrls1.perBankWrBursts::11           20137                       # Per bank write bursts
system.mem_ctrls1.perBankWrBursts::12           19924                       # Per bank write bursts
system.mem_ctrls1.perBankWrBursts::13           20179                       # Per bank write bursts
system.mem_ctrls1.perBankWrBursts::14           20150                       # Per bank write bursts
system.mem_ctrls1.perBankWrBursts::15           20088                       # Per bank write bursts
system.mem_ctrls1.numRdRetry                   144108                       # Number of times read queue was full causing retry
system.mem_ctrls1.numWrRetry                    16597                       # Number of times write queue was full causing retry
system.mem_ctrls1.totGap                 153830562000                       # Total gap between requests
system.mem_ctrls1.readPktSize::0                    0                       # Read request sizes (log2)
system.mem_ctrls1.readPktSize::1                    0                       # Read request sizes (log2)
system.mem_ctrls1.readPktSize::2                    0                       # Read request sizes (log2)
system.mem_ctrls1.readPktSize::3                    0                       # Read request sizes (log2)
system.mem_ctrls1.readPktSize::4                    0                       # Read request sizes (log2)
system.mem_ctrls1.readPktSize::5                    0                       # Read request sizes (log2)
system.mem_ctrls1.readPktSize::6               383116                       # Read request sizes (log2)
system.mem_ctrls1.writePktSize::0                   0                       # Write request sizes (log2)
system.mem_ctrls1.writePktSize::1                   0                       # Write request sizes (log2)
system.mem_ctrls1.writePktSize::2                   0                       # Write request sizes (log2)
system.mem_ctrls1.writePktSize::3                   0                       # Write request sizes (log2)
system.mem_ctrls1.writePktSize::4                   0                       # Write request sizes (log2)
system.mem_ctrls1.writePktSize::5                   0                       # Write request sizes (log2)
system.mem_ctrls1.writePktSize::6              323195                       # Write request sizes (log2)
system.mem_ctrls1.rdQLenPdf::0                 200409                       # What read queue length does an incoming req see
system.mem_ctrls1.rdQLenPdf::1                   1593                       # What read queue length does an incoming req see
system.mem_ctrls1.rdQLenPdf::2                   1055                       # What read queue length does an incoming req see
system.mem_ctrls1.rdQLenPdf::3                   1167                       # What read queue length does an incoming req see
system.mem_ctrls1.rdQLenPdf::4                   1241                       # What read queue length does an incoming req see
system.mem_ctrls1.rdQLenPdf::5                   1218                       # What read queue length does an incoming req see
system.mem_ctrls1.rdQLenPdf::6                   1222                       # What read queue length does an incoming req see
system.mem_ctrls1.rdQLenPdf::7                   1269                       # What read queue length does an incoming req see
system.mem_ctrls1.rdQLenPdf::8                   1249                       # What read queue length does an incoming req see
system.mem_ctrls1.rdQLenPdf::9                   1203                       # What read queue length does an incoming req see
system.mem_ctrls1.rdQLenPdf::10                  1145                       # What read queue length does an incoming req see
system.mem_ctrls1.rdQLenPdf::11                  1074                       # What read queue length does an incoming req see
system.mem_ctrls1.rdQLenPdf::12                  1034                       # What read queue length does an incoming req see
system.mem_ctrls1.rdQLenPdf::13                  1035                       # What read queue length does an incoming req see
system.mem_ctrls1.rdQLenPdf::14                  1060                       # What read queue length does an incoming req see
system.mem_ctrls1.rdQLenPdf::15                   967                       # What read queue length does an incoming req see
system.mem_ctrls1.rdQLenPdf::16                  1018                       # What read queue length does an incoming req see
system.mem_ctrls1.rdQLenPdf::17                  1029                       # What read queue length does an incoming req see
system.mem_ctrls1.rdQLenPdf::18                   995                       # What read queue length does an incoming req see
system.mem_ctrls1.rdQLenPdf::19                   963                       # What read queue length does an incoming req see
system.mem_ctrls1.rdQLenPdf::20                   916                       # What read queue length does an incoming req see
system.mem_ctrls1.rdQLenPdf::21                   972                       # What read queue length does an incoming req see
system.mem_ctrls1.rdQLenPdf::22                   931                       # What read queue length does an incoming req see
system.mem_ctrls1.rdQLenPdf::23                   960                       # What read queue length does an incoming req see
system.mem_ctrls1.rdQLenPdf::24                   968                       # What read queue length does an incoming req see
system.mem_ctrls1.rdQLenPdf::25                   984                       # What read queue length does an incoming req see
system.mem_ctrls1.rdQLenPdf::26                  1028                       # What read queue length does an incoming req see
system.mem_ctrls1.rdQLenPdf::27                  1129                       # What read queue length does an incoming req see
system.mem_ctrls1.rdQLenPdf::28                  1217                       # What read queue length does an incoming req see
system.mem_ctrls1.rdQLenPdf::29                  1440                       # What read queue length does an incoming req see
system.mem_ctrls1.rdQLenPdf::30                  2017                       # What read queue length does an incoming req see
system.mem_ctrls1.rdQLenPdf::31                148595                       # What read queue length does an incoming req see
system.mem_ctrls1.wrQLenPdf::0                  46739                       # What write queue length does an incoming req see
system.mem_ctrls1.wrQLenPdf::1                  48322                       # What write queue length does an incoming req see
system.mem_ctrls1.wrQLenPdf::2                  49209                       # What write queue length does an incoming req see
system.mem_ctrls1.wrQLenPdf::3                  50189                       # What write queue length does an incoming req see
system.mem_ctrls1.wrQLenPdf::4                  51899                       # What write queue length does an incoming req see
system.mem_ctrls1.wrQLenPdf::5                  16630                       # What write queue length does an incoming req see
system.mem_ctrls1.wrQLenPdf::6                  22417                       # What write queue length does an incoming req see
system.mem_ctrls1.wrQLenPdf::7                  37790                       # What write queue length does an incoming req see
system.mem_ctrls1.bytesPerActivate::samples       207542                       # Bytes accessed per row activation
system.mem_ctrls1.bytesPerActivate::mean   217.792485                       # Bytes accessed per row activation
system.mem_ctrls1.bytesPerActivate::gmean   172.256920                       # Bytes accessed per row activation
system.mem_ctrls1.bytesPerActivate::stdev   152.340458                       # Bytes accessed per row activation
system.mem_ctrls1.bytesPerActivate::0-127        52614     25.35%     25.35% # Bytes accessed per row activation
system.mem_ctrls1.bytesPerActivate::128-255        63481     30.59%     55.94% # Bytes accessed per row activation
system.mem_ctrls1.bytesPerActivate::256-383        71634     34.52%     90.45% # Bytes accessed per row activation
system.mem_ctrls1.bytesPerActivate::384-511         9487      4.57%     95.02% # Bytes accessed per row activation
system.mem_ctrls1.bytesPerActivate::512-639         5358      2.58%     97.61% # Bytes accessed per row activation
system.mem_ctrls1.bytesPerActivate::640-767         2037      0.98%     98.59% # Bytes accessed per row activation
system.mem_ctrls1.bytesPerActivate::768-895         1115      0.54%     99.12% # Bytes accessed per row activation
system.mem_ctrls1.bytesPerActivate::896-1023          733      0.35%     99.48% # Bytes accessed per row activation
system.mem_ctrls1.bytesPerActivate::1024-1151         1083      0.52%    100.00% # Bytes accessed per row activation
system.mem_ctrls1.bytesPerActivate::total       207542                       # Bytes accessed per row activation
system.mem_ctrls1.rdPerTurnAround::samples        47984                       # Reads before turning the bus around for writes
system.mem_ctrls1.rdPerTurnAround::mean      7.983807                       # Reads before turning the bus around for writes
system.mem_ctrls1.rdPerTurnAround::stdev    15.636831                       # Reads before turning the bus around for writes
system.mem_ctrls1.rdPerTurnAround::0-127        47978     99.99%     99.99% # Reads before turning the bus around for writes
system.mem_ctrls1.rdPerTurnAround::128-255            4      0.01%    100.00% # Reads before turning the bus around for writes
system.mem_ctrls1.rdPerTurnAround::1152-1279            1      0.00%    100.00% # Reads before turning the bus around for writes
system.mem_ctrls1.rdPerTurnAround::2816-2943            1      0.00%    100.00% # Reads before turning the bus around for writes
system.mem_ctrls1.rdPerTurnAround::total        47984                       # Reads before turning the bus around for writes
system.mem_ctrls1.wrPerTurnAround::samples        47984                       # Writes before turning the bus around for reads
system.mem_ctrls1.wrPerTurnAround::mean      6.735433                       # Writes before turning the bus around for reads
system.mem_ctrls1.wrPerTurnAround::gmean     6.105421                       # Writes before turning the bus around for reads
system.mem_ctrls1.wrPerTurnAround::stdev     3.575063                       # Writes before turning the bus around for reads
system.mem_ctrls1.wrPerTurnAround::4-7          38399     80.02%     80.02% # Writes before turning the bus around for reads
system.mem_ctrls1.wrPerTurnAround::8-11          1649      3.44%     83.46% # Writes before turning the bus around for reads
system.mem_ctrls1.wrPerTurnAround::12-15         5491     11.44%     94.90% # Writes before turning the bus around for reads
system.mem_ctrls1.wrPerTurnAround::16-19         2445      5.10%    100.00% # Writes before turning the bus around for reads
system.mem_ctrls1.wrPerTurnAround::total        47984                       # Writes before turning the bus around for reads
system.mem_ctrls1.totQLat                 64971660843                       # Total ticks spent queuing
system.mem_ctrls1.totMemAccLat            72154842093                       # Total ticks spent from burst creation until serviced by the DRAM
system.mem_ctrls1.totBusLat                1915515000                       # Total ticks spent in databus transfers
system.mem_ctrls1.avgQLat                   169593.19                       # Average queueing delay per DRAM burst
system.mem_ctrls1.avgBusLat                   5000.00                       # Average bus latency per DRAM burst
system.mem_ctrls1.avgMemAccLat              188343.19                       # Average memory access latency per DRAM burst
system.mem_ctrls1.avgRdBW                      159.39                       # Average DRAM read bandwidth in MiByte/s
system.mem_ctrls1.avgWrBW                      134.46                       # Average achieved write bandwidth in MiByte/s
system.mem_ctrls1.avgRdBWSys                   159.39                       # Average system read bandwidth in MiByte/s
system.mem_ctrls1.avgWrBWSys                   134.46                       # Average system write bandwidth in MiByte/s
system.mem_ctrls1.peakBW                     12800.00                       # Theoretical peak bandwidth in MiByte/s
system.mem_ctrls1.busUtil                        2.30                       # Data bus utilization in percentage
system.mem_ctrls1.busUtilRead                    1.25                       # Data bus utilization in percentage for reads
system.mem_ctrls1.busUtilWrite                   1.05                       # Data bus utilization in percentage for writes
system.mem_ctrls1.avgRdQLen                      1.43                       # Average read queue length when enqueuing
system.mem_ctrls1.avgWrQLen                      3.00                       # Average write queue length when enqueuing
system.mem_ctrls1.readRowHits                  282270                       # Number of row buffer hits during reads
system.mem_ctrls1.writeRowHits                 216472                       # Number of row buffer hits during writes
system.mem_ctrls1.readRowHitRate                73.68                       # Row buffer hit rate for reads
system.mem_ctrls1.writeRowHitRate               66.98                       # Row buffer hit rate for writes
system.mem_ctrls1.avgGap                    217794.37                       # Average gap between requests
system.mem_ctrls1.pageHitRate                   70.61                       # Row buffer hit rate, read and write combined
system.mem_ctrls1.memoryStateTime::IDLE   27041890500                       # Time in different power states
system.mem_ctrls1.memoryStateTime::REF     5136560000                       # Time in different power states
system.mem_ctrls1.memoryStateTime::PRE_PDN            0                       # Time in different power states
system.mem_ctrls1.memoryStateTime::ACT   121647017750                       # Time in different power states
system.mem_ctrls1.memoryStateTime::ACT_PDN            0                       # Time in different power states
system.mem_ctrls1.actEnergy::0              790337520                       # Energy for activate commands per rank (pJ)
system.mem_ctrls1.actEnergy::1              778385160                       # Energy for activate commands per rank (pJ)
system.mem_ctrls1.preEnergy::0              431235750                       # Energy for precharge commands per rank (pJ)
system.mem_ctrls1.preEnergy::1              424714125                       # Energy for precharge commands per rank (pJ)
system.mem_ctrls1.readEnergy::0            1500759000                       # Energy for read commands per rank (pJ)
system.mem_ctrls1.readEnergy::1            1486633200                       # Energy for read commands per rank (pJ)
system.mem_ctrls1.writeEnergy::0           1049798880                       # Energy for write commands per rank (pJ)
system.mem_ctrls1.writeEnergy::1           1043928000                       # Energy for write commands per rank (pJ)
system.mem_ctrls1.refreshEnergy::0        10047111360                       # Energy for refresh commands per rank (pJ)
system.mem_ctrls1.refreshEnergy::1        10047111360                       # Energy for refresh commands per rank (pJ)
system.mem_ctrls1.actBackEnergy::0        60091066395                       # Energy for active background per rank (pJ)
system.mem_ctrls1.actBackEnergy::1        59614307280                       # Energy for active background per rank (pJ)
system.mem_ctrls1.preBackEnergy::0        39583811250                       # Energy for precharge background per rank (pJ)
system.mem_ctrls1.preBackEnergy::1        40002021000                       # Energy for precharge background per rank (pJ)
system.mem_ctrls1.totalEnergy::0         113494120155                       # Total energy per rank (pJ)
system.mem_ctrls1.totalEnergy::1         113397100125                       # Total energy per rank (pJ)
system.mem_ctrls1.averagePower::0          737.811048                       # Core power per rank (mW)
system.mem_ctrls1.averagePower::1          737.180333                       # Core power per rank (mW)
system.mem_ctrls2.bytes_read::ruby.dir_cntrl2     24519936                       # Number of bytes read from this memory
system.mem_ctrls2.bytes_read::total          24519936                       # Number of bytes read from this memory
system.mem_ctrls2.bytes_written::ruby.dir_cntrl2     20685888                       # Number of bytes written to this memory
system.mem_ctrls2.bytes_written::total       20685888                       # Number of bytes written to this memory
system.mem_ctrls2.num_reads::ruby.dir_cntrl2       383124                       # Number of read requests responded to by this memory
system.mem_ctrls2.num_reads::total             383124                       # Number of read requests responded to by this memory
system.mem_ctrls2.num_writes::ruby.dir_cntrl2       323217                       # Number of write requests responded to by this memory
system.mem_ctrls2.num_writes::total            323217                       # Number of write requests responded to by this memory
system.mem_ctrls2.bw_read::ruby.dir_cntrl2    159394956                       # Total read bandwidth from this memory (bytes/s)
system.mem_ctrls2.bw_read::total            159394956                       # Total read bandwidth from this memory (bytes/s)
system.mem_ctrls2.bw_write::ruby.dir_cntrl2    134471241                       # Write bandwidth from this memory (bytes/s)
system.mem_ctrls2.bw_write::total           134471241                       # Write bandwidth from this memory (bytes/s)
system.mem_ctrls2.bw_total::ruby.dir_cntrl2    293866197                       # Total bandwidth to/from this memory (bytes/s)
system.mem_ctrls2.bw_total::total           293866197                       # Total bandwidth to/from this memory (bytes/s)
system.mem_ctrls2.readReqs                     383124                       # Number of read requests accepted
system.mem_ctrls2.writeReqs                    323217                       # Number of write requests accepted
system.mem_ctrls2.readBursts                   383124                       # Number of DRAM read bursts, including those serviced by the write queue
system.mem_ctrls2.writeBursts                  323217                       # Number of DRAM write bursts, including those merged in the write queue
system.mem_ctrls2.bytesReadDRAM              24518784                       # Total number of bytes read from DRAM
system.mem_ctrls2.bytesReadWrQ                   1152                       # Total number of bytes read from write queue
system.mem_ctrls2.bytesWritten               20685760                       # Total number of bytes written to DRAM
system.mem_ctrls2.bytesReadSys               24519936                       # Total read bytes from the system interface side
system.mem_ctrls2.bytesWrittenSys            20685888                       # Total written bytes from the system interface side
system.mem_ctrls2.servicedByWrQ                    18                       # Number of DRAM read bursts serviced by the write queue
system.mem_ctrls2.mergedWrBursts                    0                       # Number of DRAM write bursts merged with an existing one
system.mem_ctrls2.neitherReadNorWriteReqs            0                       # Number of requests that are neither read nor write
system.mem_ctrls2.perBankRdBursts::0            23640                       # Per bank write bursts
system.mem_ctrls2.perBankRdBursts::1            24312                       # Per bank write bursts
system.mem_ctrls2.perBankRdBursts::2            23950                       # Per bank write bursts
system.mem_ctrls2.perBankRdBursts::3            24276                       # Per bank write bursts
system.mem_ctrls2.perBankRdBursts::4            23867                       # Per bank write bursts
system.mem_ctrls2.perBankRdBursts::5            24190                       # Per bank write bursts
system.mem_ctrls2.perBankRdBursts::6            24268                       # Per bank write bursts
system.mem_ctrls2.perBankRdBursts::7            24028                       # Per bank write bursts
system.mem_ctrls2.perBankRdBursts::8            23897                       # Per bank write bursts
system.mem_ctrls2.perBankRdBursts::9            24053                       # Per bank write bursts
system.mem_ctrls2.perBankRdBursts::10           23827                       # Per bank write bursts
system.mem_ctrls2.perBankRdBursts::11           24354                       # Per bank write bursts
system.mem_ctrls2.perBankRdBursts::12           23625                       # Per bank write bursts
system.mem_ctrls2.perBankRdBursts::13           23441                       # Per bank write bursts
system.mem_ctrls2.perBankRdBursts::14           23589                       # Per bank write bursts
system.mem_ctrls2.perBankRdBursts::15           23789                       # Per bank write bursts
system.mem_ctrls2.perBankWrBursts::0            20223                       # Per bank write bursts
system.mem_ctrls2.perBankWrBursts::1            20159                       # Per bank write bursts
system.mem_ctrls2.perBankWrBursts::2            20144                       # Per bank write bursts
system.mem_ctrls2.perBankWrBursts::3            20431                       # Per bank write bursts
system.mem_ctrls2.perBankWrBursts::4            20067                       # Per bank write bursts
system.mem_ctrls2.perBankWrBursts::5            20341                       # Per bank write bursts
system.mem_ctrls2.perBankWrBursts::6            20360                       # Per bank write bursts
system.mem_ctrls2.perBankWrBursts::7            20309                       # Per bank write bursts
system.mem_ctrls2.perBankWrBursts::8            20388                       # Per bank write bursts
system.mem_ctrls2.perBankWrBursts::9            20189                       # Per bank write bursts
system.mem_ctrls2.perBankWrBursts::10           20101                       # Per bank write bursts
system.mem_ctrls2.perBankWrBursts::11           20135                       # Per bank write bursts
system.mem_ctrls2.perBankWrBursts::12           19931                       # Per bank write bursts
system.mem_ctrls2.perBankWrBursts::13           20173                       # Per bank write bursts
system.mem_ctrls2.perBankWrBursts::14           20160                       # Per bank write bursts
system.mem_ctrls2.perBankWrBursts::15           20104                       # Per bank write bursts
system.mem_ctrls2.numRdRetry                   143327                       # Number of times read queue was full causing retry
system.mem_ctrls2.numWrRetry                    17350                       # Number of times write queue was full causing retry
system.mem_ctrls2.totGap                 153830486000                       # Total gap between requests
system.mem_ctrls2.readPktSize::0                    0                       # Read request sizes (log2)
system.mem_ctrls2.readPktSize::1                    0                       # Read request sizes (log2)
system.mem_ctrls2.readPktSize::2                    0                       # Read request sizes (log2)
system.mem_ctrls2.readPktSize::3                    0                       # Read request sizes (log2)
system.mem_ctrls2.readPktSize::4                    0                       # Read request sizes (log2)
system.mem_ctrls2.readPktSize::5                    0                       # Read request sizes (log2)
system.mem_ctrls2.readPktSize::6               383124                       # Read request sizes (log2)
system.mem_ctrls2.writePktSize::0                   0                       # Write request sizes (log2)
system.mem_ctrls2.writePktSize::1                   0                       # Write request sizes (log2)
system.mem_ctrls2.writePktSize::2                   0                       # Write request sizes (log2)
system.mem_ctrls2.writePktSize::3                   0                       # Write request sizes (log2)
system.mem_ctrls2.writePktSize::4                   0                       # Write request sizes (log2)
system.mem_ctrls2.writePktSize::5                   0                       # Write request sizes (log2)
system.mem_ctrls2.writePktSize::6              323217                       # Write request sizes (log2)
system.mem_ctrls2.rdQLenPdf::0                 200711                       # What read queue length does an incoming req see
system.mem_ctrls2.rdQLenPdf::1                   1394                       # What read queue length does an incoming req see
system.mem_ctrls2.rdQLenPdf::2                   1108                       # What read queue length does an incoming req see
system.mem_ctrls2.rdQLenPdf::3                   1178                       # What read queue length does an incoming req see
system.mem_ctrls2.rdQLenPdf::4                   1193                       # What read queue length does an incoming req see
system.mem_ctrls2.rdQLenPdf::5                   1238                       # What read queue length does an incoming req see
system.mem_ctrls2.rdQLenPdf::6                   1277                       # What read queue length does an incoming req see
system.mem_ctrls2.rdQLenPdf::7                   1251                       # What read queue length does an incoming req see
system.mem_ctrls2.rdQLenPdf::8                   1238                       # What read queue length does an incoming req see
system.mem_ctrls2.rdQLenPdf::9                   1165                       # What read queue length does an incoming req see
system.mem_ctrls2.rdQLenPdf::10                  1149                       # What read queue length does an incoming req see
system.mem_ctrls2.rdQLenPdf::11                  1151                       # What read queue length does an incoming req see
system.mem_ctrls2.rdQLenPdf::12                  1070                       # What read queue length does an incoming req see
system.mem_ctrls2.rdQLenPdf::13                  1066                       # What read queue length does an incoming req see
system.mem_ctrls2.rdQLenPdf::14                  1048                       # What read queue length does an incoming req see
system.mem_ctrls2.rdQLenPdf::15                  1016                       # What read queue length does an incoming req see
system.mem_ctrls2.rdQLenPdf::16                  1020                       # What read queue length does an incoming req see
system.mem_ctrls2.rdQLenPdf::17                  1040                       # What read queue length does an incoming req see
system.mem_ctrls2.rdQLenPdf::18                  1042                       # What read queue length does an incoming req see
system.mem_ctrls2.rdQLenPdf::19                  1022                       # What read queue length does an incoming req see
system.mem_ctrls2.rdQLenPdf::20                   945                       # What read queue length does an incoming req see
system.mem_ctrls2.rdQLenPdf::21                   927                       # What read queue length does an incoming req see
system.mem_ctrls2.rdQLenPdf::22                   928                       # What read queue length does an incoming req see
system.mem_ctrls2.rdQLenPdf::23                   953                       # What read queue length does an incoming req see
system.mem_ctrls2.rdQLenPdf::24                  1025                       # What read queue length does an incoming req see
system.mem_ctrls2.rdQLenPdf::25                  1057                       # What read queue length does an incoming req see
system.mem_ctrls2.rdQLenPdf::26                  1054                       # What read queue length does an incoming req see
system.mem_ctrls2.rdQLenPdf::27                  1105                       # What read queue length does an incoming req see
system.mem_ctrls2.rdQLenPdf::28                  1203                       # What read queue length does an incoming req see
system.mem_ctrls2.rdQLenPdf::29                  1432                       # What read queue length does an incoming req see
system.mem_ctrls2.rdQLenPdf::30                  2106                       # What read queue length does an incoming req see
system.mem_ctrls2.rdQLenPdf::31                147994                       # What read queue length does an incoming req see
system.mem_ctrls2.wrQLenPdf::0                  46678                       # What write queue length does an incoming req see
system.mem_ctrls2.wrQLenPdf::1                  48380                       # What write queue length does an incoming req see
system.mem_ctrls2.wrQLenPdf::2                  49247                       # What write queue length does an incoming req see
system.mem_ctrls2.wrQLenPdf::3                  50243                       # What write queue length does an incoming req see
system.mem_ctrls2.wrQLenPdf::4                  51869                       # What write queue length does an incoming req see
system.mem_ctrls2.wrQLenPdf::5                  16535                       # What write queue length does an incoming req see
system.mem_ctrls2.wrQLenPdf::6                  22099                       # What write queue length does an incoming req see
system.mem_ctrls2.wrQLenPdf::7                  38166                       # What write queue length does an incoming req see
system.mem_ctrls2.bytesPerActivate::samples       206592                       # Bytes accessed per row activation
system.mem_ctrls2.bytesPerActivate::mean   218.802974                       # Bytes accessed per row activation
system.mem_ctrls2.bytesPerActivate::gmean   173.336717                       # Bytes accessed per row activation
system.mem_ctrls2.bytesPerActivate::stdev   152.145458                       # Bytes accessed per row activation
system.mem_ctrls2.bytesPerActivate::0-127        51699     25.02%     25.02% # Bytes accessed per row activation
system.mem_ctrls2.bytesPerActivate::128-255        62526     30.27%     55.29% # Bytes accessed per row activation
system.mem_ctrls2.bytesPerActivate::256-383        72362     35.03%     90.32% # Bytes accessed per row activation
system.mem_ctrls2.bytesPerActivate::384-511         9749      4.72%     95.04% # Bytes accessed per row activation
system.mem_ctrls2.bytesPerActivate::512-639         5299      2.56%     97.60% # Bytes accessed per row activation
system.mem_ctrls2.bytesPerActivate::640-767         2076      1.00%     98.61% # Bytes accessed per row activation
system.mem_ctrls2.bytesPerActivate::768-895         1048      0.51%     99.11% # Bytes accessed per row activation
system.mem_ctrls2.bytesPerActivate::896-1023          715      0.35%     99.46% # Bytes accessed per row activation
system.mem_ctrls2.bytesPerActivate::1024-1151         1118      0.54%    100.00% # Bytes accessed per row activation
system.mem_ctrls2.bytesPerActivate::total       206592                       # Bytes accessed per row activation
system.mem_ctrls2.rdPerTurnAround::samples        47988                       # Reads before turning the bus around for writes
system.mem_ctrls2.rdPerTurnAround::mean      7.983267                       # Reads before turning the bus around for writes
system.mem_ctrls2.rdPerTurnAround::stdev    15.687500                       # Reads before turning the bus around for writes
system.mem_ctrls2.rdPerTurnAround::0-127        47982     99.99%     99.99% # Reads before turning the bus around for writes
system.mem_ctrls2.rdPerTurnAround::128-255            4      0.01%    100.00% # Reads before turning the bus around for writes
system.mem_ctrls2.rdPerTurnAround::1152-1279            1      0.00%    100.00% # Reads before turning the bus around for writes
system.mem_ctrls2.rdPerTurnAround::2816-2943            1      0.00%    100.00% # Reads before turning the bus around for writes
system.mem_ctrls2.rdPerTurnAround::total        47988                       # Reads before turning the bus around for writes
system.mem_ctrls2.wrPerTurnAround::samples        47988                       # Writes before turning the bus around for reads
system.mem_ctrls2.wrPerTurnAround::mean      6.735330                       # Writes before turning the bus around for reads
system.mem_ctrls2.wrPerTurnAround::gmean     6.104993                       # Writes before turning the bus around for reads
system.mem_ctrls2.wrPerTurnAround::stdev     3.576094                       # Writes before turning the bus around for reads
system.mem_ctrls2.wrPerTurnAround::4-7          38387     79.99%     79.99% # Writes before turning the bus around for reads
system.mem_ctrls2.wrPerTurnAround::8-11          1646      3.43%     83.42% # Writes before turning the bus around for reads
system.mem_ctrls2.wrPerTurnAround::12-15         5457     11.37%     94.79% # Writes before turning the bus around for reads
system.mem_ctrls2.wrPerTurnAround::16-19         2498      5.21%    100.00% # Writes before turning the bus around for reads
system.mem_ctrls2.wrPerTurnAround::total        47988                       # Writes before turning the bus around for reads
system.mem_ctrls2.totQLat                 64751944041                       # Total ticks spent queuing
system.mem_ctrls2.totMemAccLat            71935181541                       # Total ticks spent from burst creation until serviced by the DRAM
system.mem_ctrls2.totBusLat                1915530000                       # Total ticks spent in databus transfers
system.mem_ctrls2.avgQLat                   169018.35                       # Average queueing delay per DRAM burst
system.mem_ctrls2.avgBusLat                   5000.00                       # Average bus latency per DRAM burst
system.mem_ctrls2.avgMemAccLat              187768.35                       # Average memory access latency per DRAM burst
system.mem_ctrls2.avgRdBW                      159.39                       # Average DRAM read bandwidth in MiByte/s
system.mem_ctrls2.avgWrBW                      134.47                       # Average achieved write bandwidth in MiByte/s
system.mem_ctrls2.avgRdBWSys                   159.39                       # Average system read bandwidth in MiByte/s
system.mem_ctrls2.avgWrBWSys                   134.47                       # Average system write bandwidth in MiByte/s
system.mem_ctrls2.peakBW                     12800.00                       # Theoretical peak bandwidth in MiByte/s
system.mem_ctrls2.busUtil                        2.30                       # Data bus utilization in percentage
system.mem_ctrls2.busUtilRead                    1.25                       # Data bus utilization in percentage for reads
system.mem_ctrls2.busUtilWrite                   1.05                       # Data bus utilization in percentage for writes
system.mem_ctrls2.avgRdQLen                      1.42                       # Average read queue length when enqueuing
system.mem_ctrls2.avgWrQLen                      3.02                       # Average write queue length when enqueuing
system.mem_ctrls2.readRowHits                  282571                       # Number of row buffer hits during reads
system.mem_ctrls2.writeRowHits                 217145                       # Number of row buffer hits during writes
system.mem_ctrls2.readRowHitRate                73.76                       # Row buffer hit rate for reads
system.mem_ctrls2.writeRowHitRate               67.18                       # Row buffer hit rate for writes
system.mem_ctrls2.avgGap                    217785.02                       # Average gap between requests
system.mem_ctrls2.pageHitRate                   70.75                       # Row buffer hit rate, read and write combined
system.mem_ctrls2.memoryStateTime::IDLE   27139091000                       # Time in different power states
system.mem_ctrls2.memoryStateTime::REF     5136560000                       # Time in different power states
system.mem_ctrls2.memoryStateTime::PRE_PDN            0                       # Time in different power states
system.mem_ctrls2.memoryStateTime::ACT   121549777750                       # Time in different power states
system.mem_ctrls2.memoryStateTime::ACT_PDN            0                       # Time in different power states
system.mem_ctrls2.actEnergy::0              786466800                       # Energy for activate commands per rank (pJ)
system.mem_ctrls2.actEnergy::1              775073880                       # Energy for activate commands per rank (pJ)
system.mem_ctrls2.preEnergy::0              429123750                       # Energy for precharge commands per rank (pJ)
system.mem_ctrls2.preEnergy::1              422907375                       # Energy for precharge commands per rank (pJ)
system.mem_ctrls2.readEnergy::0            1500985200                       # Energy for read commands per rank (pJ)
system.mem_ctrls2.readEnergy::1            1486438200                       # Energy for read commands per rank (pJ)
system.mem_ctrls2.writeEnergy::0           1049766480                       # Energy for write commands per rank (pJ)
system.mem_ctrls2.writeEnergy::1           1044090000                       # Energy for write commands per rank (pJ)
system.mem_ctrls2.refreshEnergy::0        10047111360                       # Energy for refresh commands per rank (pJ)
system.mem_ctrls2.refreshEnergy::1        10047111360                       # Energy for refresh commands per rank (pJ)
system.mem_ctrls2.actBackEnergy::0        59667864480                       # Energy for active background per rank (pJ)
system.mem_ctrls2.actBackEnergy::1        59205001680                       # Energy for active background per rank (pJ)
system.mem_ctrls2.preBackEnergy::0        39955017000                       # Energy for precharge background per rank (pJ)
system.mem_ctrls2.preBackEnergy::1        40361037000                       # Energy for precharge background per rank (pJ)
system.mem_ctrls2.totalEnergy::0         113436335070                       # Total energy per rank (pJ)
system.mem_ctrls2.totalEnergy::1         113341659495                       # Total energy per rank (pJ)
system.mem_ctrls2.averagePower::0          737.435586                       # Core power per rank (mW)
system.mem_ctrls2.averagePower::1          736.820112                       # Core power per rank (mW)
system.mem_ctrls3.bytes_read::ruby.dir_cntrl3     24499520                       # Number of bytes read from this memory
system.mem_ctrls3.bytes_read::total          24499520                       # Number of bytes read from this memory
system.mem_ctrls3.bytes_written::ruby.dir_cntrl3     20683584                       # Number of bytes written to this memory
system.mem_ctrls3.bytes_written::total       20683584                       # Number of bytes written to this memory
system.mem_ctrls3.num_reads::ruby.dir_cntrl3       382805                       # Number of read requests responded to by this memory
system.mem_ctrls3.num_reads::total             382805                       # Number of read requests responded to by this memory
system.mem_ctrls3.num_writes::ruby.dir_cntrl3       323181                       # Number of write requests responded to by this memory
system.mem_ctrls3.num_writes::total            323181                       # Number of write requests responded to by this memory
system.mem_ctrls3.bw_read::ruby.dir_cntrl3    159262240                       # Total read bandwidth from this memory (bytes/s)
system.mem_ctrls3.bw_read::total            159262240                       # Total read bandwidth from this memory (bytes/s)
system.mem_ctrls3.bw_write::ruby.dir_cntrl3    134456263                       # Write bandwidth from this memory (bytes/s)
system.mem_ctrls3.bw_write::total           134456263                       # Write bandwidth from this memory (bytes/s)
system.mem_ctrls3.bw_total::ruby.dir_cntrl3    293718503                       # Total bandwidth to/from this memory (bytes/s)
system.mem_ctrls3.bw_total::total           293718503                       # Total bandwidth to/from this memory (bytes/s)
system.mem_ctrls3.readReqs                     382805                       # Number of read requests accepted
system.mem_ctrls3.writeReqs                    323181                       # Number of write requests accepted
system.mem_ctrls3.readBursts                   382805                       # Number of DRAM read bursts, including those serviced by the write queue
system.mem_ctrls3.writeBursts                  323181                       # Number of DRAM write bursts, including those merged in the write queue
system.mem_ctrls3.bytesReadDRAM              24498880                       # Total number of bytes read from DRAM
system.mem_ctrls3.bytesReadWrQ                    640                       # Total number of bytes read from write queue
system.mem_ctrls3.bytesWritten               20683584                       # Total number of bytes written to DRAM
system.mem_ctrls3.bytesReadSys               24499520                       # Total read bytes from the system interface side
system.mem_ctrls3.bytesWrittenSys            20683584                       # Total written bytes from the system interface side
system.mem_ctrls3.servicedByWrQ                    10                       # Number of DRAM read bursts serviced by the write queue
system.mem_ctrls3.mergedWrBursts                    0                       # Number of DRAM write bursts merged with an existing one
system.mem_ctrls3.neitherReadNorWriteReqs            0                       # Number of requests that are neither read nor write
system.mem_ctrls3.perBankRdBursts::0            23629                       # Per bank write bursts
system.mem_ctrls3.perBankRdBursts::1            24308                       # Per bank write bursts
system.mem_ctrls3.perBankRdBursts::2            23827                       # Per bank write bursts
system.mem_ctrls3.perBankRdBursts::3            24239                       # Per bank write bursts
system.mem_ctrls3.perBankRdBursts::4            23815                       # Per bank write bursts
system.mem_ctrls3.perBankRdBursts::5            24195                       # Per bank write bursts
system.mem_ctrls3.perBankRdBursts::6            24262                       # Per bank write bursts
system.mem_ctrls3.perBankRdBursts::7            24031                       # Per bank write bursts
system.mem_ctrls3.perBankRdBursts::8            23882                       # Per bank write bursts
system.mem_ctrls3.perBankRdBursts::9            24028                       # Per bank write bursts
system.mem_ctrls3.perBankRdBursts::10           23894                       # Per bank write bursts
system.mem_ctrls3.perBankRdBursts::11           24307                       # Per bank write bursts
system.mem_ctrls3.perBankRdBursts::12           23558                       # Per bank write bursts
system.mem_ctrls3.perBankRdBursts::13           23450                       # Per bank write bursts
system.mem_ctrls3.perBankRdBursts::14           23607                       # Per bank write bursts
system.mem_ctrls3.perBankRdBursts::15           23763                       # Per bank write bursts
system.mem_ctrls3.perBankWrBursts::0            20224                       # Per bank write bursts
system.mem_ctrls3.perBankWrBursts::1            20154                       # Per bank write bursts
system.mem_ctrls3.perBankWrBursts::2            20147                       # Per bank write bursts
system.mem_ctrls3.perBankWrBursts::3            20420                       # Per bank write bursts
system.mem_ctrls3.perBankWrBursts::4            20059                       # Per bank write bursts
system.mem_ctrls3.perBankWrBursts::5            20342                       # Per bank write bursts
system.mem_ctrls3.perBankWrBursts::6            20360                       # Per bank write bursts
system.mem_ctrls3.perBankWrBursts::7            20299                       # Per bank write bursts
system.mem_ctrls3.perBankWrBursts::8            20384                       # Per bank write bursts
system.mem_ctrls3.perBankWrBursts::9            20190                       # Per bank write bursts
system.mem_ctrls3.perBankWrBursts::10           20104                       # Per bank write bursts
system.mem_ctrls3.perBankWrBursts::11           20145                       # Per bank write bursts
system.mem_ctrls3.perBankWrBursts::12           19930                       # Per bank write bursts
system.mem_ctrls3.perBankWrBursts::13           20181                       # Per bank write bursts
system.mem_ctrls3.perBankWrBursts::14           20159                       # Per bank write bursts
system.mem_ctrls3.perBankWrBursts::15           20083                       # Per bank write bursts
system.mem_ctrls3.numRdRetry                   142235                       # Number of times read queue was full causing retry
system.mem_ctrls3.numWrRetry                    17116                       # Number of times write queue was full causing retry
system.mem_ctrls3.totGap                 153830193500                       # Total gap between requests
system.mem_ctrls3.readPktSize::0                    0                       # Read request sizes (log2)
system.mem_ctrls3.readPktSize::1                    0                       # Read request sizes (log2)
system.mem_ctrls3.readPktSize::2                    0                       # Read request sizes (log2)
system.mem_ctrls3.readPktSize::3                    0                       # Read request sizes (log2)
system.mem_ctrls3.readPktSize::4                    0                       # Read request sizes (log2)
system.mem_ctrls3.readPktSize::5                    0                       # Read request sizes (log2)
system.mem_ctrls3.readPktSize::6               382805                       # Read request sizes (log2)
system.mem_ctrls3.writePktSize::0                   0                       # Write request sizes (log2)
system.mem_ctrls3.writePktSize::1                   0                       # Write request sizes (log2)
system.mem_ctrls3.writePktSize::2                   0                       # Write request sizes (log2)
system.mem_ctrls3.writePktSize::3                   0                       # Write request sizes (log2)
system.mem_ctrls3.writePktSize::4                   0                       # Write request sizes (log2)
system.mem_ctrls3.writePktSize::5                   0                       # Write request sizes (log2)
system.mem_ctrls3.writePktSize::6              323181                       # Write request sizes (log2)
system.mem_ctrls3.rdQLenPdf::0                 200283                       # What read queue length does an incoming req see
system.mem_ctrls3.rdQLenPdf::1                   1445                       # What read queue length does an incoming req see
system.mem_ctrls3.rdQLenPdf::2                   1123                       # What read queue length does an incoming req see
system.mem_ctrls3.rdQLenPdf::3                   1198                       # What read queue length does an incoming req see
system.mem_ctrls3.rdQLenPdf::4                   1235                       # What read queue length does an incoming req see
system.mem_ctrls3.rdQLenPdf::5                   1317                       # What read queue length does an incoming req see
system.mem_ctrls3.rdQLenPdf::6                   1283                       # What read queue length does an incoming req see
system.mem_ctrls3.rdQLenPdf::7                   1274                       # What read queue length does an incoming req see
system.mem_ctrls3.rdQLenPdf::8                   1216                       # What read queue length does an incoming req see
system.mem_ctrls3.rdQLenPdf::9                   1279                       # What read queue length does an incoming req see
system.mem_ctrls3.rdQLenPdf::10                  1205                       # What read queue length does an incoming req see
system.mem_ctrls3.rdQLenPdf::11                  1222                       # What read queue length does an incoming req see
system.mem_ctrls3.rdQLenPdf::12                  1211                       # What read queue length does an incoming req see
system.mem_ctrls3.rdQLenPdf::13                  1156                       # What read queue length does an incoming req see
system.mem_ctrls3.rdQLenPdf::14                  1145                       # What read queue length does an incoming req see
system.mem_ctrls3.rdQLenPdf::15                  1108                       # What read queue length does an incoming req see
system.mem_ctrls3.rdQLenPdf::16                  1079                       # What read queue length does an incoming req see
system.mem_ctrls3.rdQLenPdf::17                  1042                       # What read queue length does an incoming req see
system.mem_ctrls3.rdQLenPdf::18                   976                       # What read queue length does an incoming req see
system.mem_ctrls3.rdQLenPdf::19                   973                       # What read queue length does an incoming req see
system.mem_ctrls3.rdQLenPdf::20                  1072                       # What read queue length does an incoming req see
system.mem_ctrls3.rdQLenPdf::21                  1105                       # What read queue length does an incoming req see
system.mem_ctrls3.rdQLenPdf::22                   994                       # What read queue length does an incoming req see
system.mem_ctrls3.rdQLenPdf::23                  1000                       # What read queue length does an incoming req see
system.mem_ctrls3.rdQLenPdf::24                  1013                       # What read queue length does an incoming req see
[...]
system.ruby.L2Cache_Controller.S_I.Ack::total            2                      
system.ruby.L2Cache_Controller.S_I.Ack_all |           0      0.00%      0.00% |           4     28.57%     28.57% |           1      7.14%     35.71% |           1      7.14%     42.86% |           0      0.00%     42.86% |           2     14.29%     57.14% |           0      0.00%     57.14% |           0      0.00%     57.14% |           0      0.00%     57.14% |           1      7.14%     64.29% |           1      7.14%     71.43% |           0      0.00%     71.43% |           0      0.00%     71.43% |           0      0.00%     71.43% |           1      7.14%     78.57% |           0      0.00%     78.57% |           0      0.00%     78.57% |           0      0.00%     78.57% |           1      7.14%     85.71% |           0      0.00%     85.71% |           0      0.00%     85.71% |           0      0.00%     85.71% |           0      0.00%     85.71% |           0      0.00%     85.71% |           1      7.14%     92.86% |           0      0.00%     92.86% |           0      0.00%     92.86% |           0      0.00%     92.86% |           1      7.14%    100.00% |           0      0.00%    100.00% |           0      0.00%    100.00% |           0      0.00%    100.00%
system.ruby.L2Cache_Controller.S_I.Ack_all::total           14                      
system.ruby.L2Cache_Controller.ISS.Mem_Data |       19049      8.05%      8.05% |        7099      3.00%     11.05% |        7102      3.00%     14.05% |        7052      2.98%     17.03% |        7020      2.97%     19.99% |        7005      2.96%     22.95% |        7016      2.96%     25.92% |        7011      2.96%     28.88% |        7050      2.98%     31.86% |        7051      2.98%     34.83% |        7085      2.99%     37.83% |        7008      2.96%     40.79% |        7013      2.96%     43.75% |        7011      2.96%     46.71% |        7018      2.96%     49.68% |        6980      2.95%     52.63% |        7017      2.96%     55.59% |        6995      2.96%     58.55% |        7025      2.97%     61.51% |        7005      2.96%     64.47% |        7000      2.96%     67.43% |        6988      2.95%     70.38% |        7015      2.96%     73.35% |        7003      2.96%     76.31% |        7027      2.97%     79.27% |        7026      2.97%     82.24% |        7004      2.96%     85.20% |        6981      2.95%     88.15% |        7025      2.97%     91.12% |        7005      2.96%     94.08% |        6979      2.95%     97.03% |        7037      2.97%    100.00%
system.ruby.L2Cache_Controller.ISS.Mem_Data::total       236702                      
system.ruby.L2Cache_Controller.IS.Mem_Data |         542      3.26%      3.26% |         471      2.84%      6.10% |         464      2.79%      8.89% |         465      2.80%     11.69% |         511      3.08%     14.77% |         466      2.81%     17.57% |         504      3.03%     20.60% |         528      3.18%     23.78% |         547      3.29%     27.08% |         487      2.93%     30.01% |         533      3.21%     33.21% |         566      3.41%     36.62% |         618      3.72%     40.34% |         561      3.38%     43.72% |         579      3.49%     47.20% |         523      3.15%     50.35% |         532      3.20%     53.55% |         569      3.43%     56.98% |         562      3.38%     60.36% |         510      3.07%     63.43% |         504      3.03%     66.47% |         520      3.13%     69.60% |         480      2.89%     72.49% |         468      2.82%     75.30% |         546      3.29%     78.59% |         592      3.56%     82.15% |         532      3.20%     85.35% |         479      2.88%     88.24% |         489      2.94%     91.18% |         510      3.07%     94.25% |         490      2.95%     97.20% |         465      2.80%    100.00%
system.ruby.L2Cache_Controller.IS.Mem_Data::total        16613                      
system.ruby.L2Cache_Controller.IM.L1_GETX |           2    100.00%    100.00% |           0      0.00%    100.00% |           0      0.00%    100.00% |           0      0.00%    100.00% |           0      0.00%    100.00% |           0      0.00%    100.00% |           0      0.00%    100.00% |           0      0.00%    100.00% |           0      0.00%    100.00% |           0      0.00%    100.00% |           0      0.00%    100.00% |           0      0.00%    100.00% |           0      0.00%    100.00% |           0      0.00%    100.00% |           0      0.00%    100.00% |           0      0.00%    100.00% |           0      0.00%    100.00% |           0      0.00%    100.00% |           0      0.00%    100.00% |           0      0.00%    100.00% |           0      0.00%    100.00% |           0      0.00%    100.00% |           0      0.00%    100.00% |           0      0.00%    100.00% |           0      0.00%    100.00% |           0      0.00%    100.00% |           0      0.00%    100.00% |           0      0.00%    100.00% |           0      0.00%    100.00% |           0      0.00%    100.00% |           0      0.00%    100.00% |           0      0.00%    100.00%
system.ruby.L2Cache_Controller.IM.L1_GETX::total            2                      
system.ruby.L2Cache_Controller.IM.Mem_Data |       40759      3.16%      3.16% |       40329      3.12%      6.28% |       40341      3.12%      9.40% |       40347      3.12%     12.53% |       40352      3.12%     15.65% |       40362      3.13%     18.78% |       40339      3.12%     21.90% |       40336      3.12%     25.02% |       40349      3.12%     28.15% |       40344      3.12%     31.27% |       40329      3.12%     34.40% |       40358      3.13%     37.52% |       40339      3.12%     40.64% |       40338      3.12%     43.77% |       40341      3.12%     46.89% |       40330      3.12%     50.02% |       40352      3.12%     53.14% |       40351      3.12%     56.26% |       40349      3.12%     59.39% |       40345      3.12%     62.51% |       40340      3.12%     65.64% |       40354      3.12%     68.76% |       40339      3.12%     71.89% |       40341      3.12%     75.01% |       40347      3.12%     78.13% |       40345      3.12%     81.26% |       40349      3.12%     84.38% |       40336      3.12%     87.51% |       40336      3.12%     90.63% |       40337      3.12%     93.75% |       40349      3.12%     96.88% |       40331      3.12%    100.00%
system.ruby.L2Cache_Controller.IM.Mem_Data::total      1291394                      
system.ruby.L2Cache_Controller.SS_MB.Exclusive_Unblock |           4      8.89%      8.89% |           6     13.33%     22.22% |           2      4.44%     26.67% |           6     13.33%     40.00% |           1      2.22%     42.22% |           0      0.00%     42.22% |           1      2.22%     44.44% |           0      0.00%     44.44% |           0      0.00%     44.44% |           1      2.22%     46.67% |           1      2.22%     48.89% |           0      0.00%     48.89% |           4      8.89%     57.78% |           0      0.00%     57.78% |           3      6.67%     64.44% |           0      0.00%     64.44% |           0      0.00%     64.44% |           0      0.00%     64.44% |           9     20.00%     84.44% |           0      0.00%     84.44% |           0      0.00%     84.44% |           0      0.00%     84.44% |           0      0.00%     84.44% |           0      0.00%     84.44% |           1      2.22%     86.67% |           2      4.44%     91.11% |           1      2.22%     93.33% |           1      2.22%     95.56% |           0      0.00%     95.56% |           1      2.22%     97.78% |           1      2.22%    100.00% |           0      0.00%    100.00%
system.ruby.L2Cache_Controller.SS_MB.Exclusive_Unblock::total           45                      
system.ruby.L2Cache_Controller.MT_MB.L1_PUTX |           2    100.00%    100.00% |           0      0.00%    100.00% |           0      0.00%    100.00% |           0      0.00%    100.00% |           0      0.00%    100.00% |           0      0.00%    100.00% |           0      0.00%    100.00% |           0      0.00%    100.00% |           0      0.00%    100.00% |           0      0.00%    100.00% |           0      0.00%    100.00% |           0      0.00%    100.00% |           0      0.00%    100.00% |           0      0.00%    100.00% |           0      0.00%    100.00% |           0      0.00%    100.00% |           0      0.00%    100.00% |           0      0.00%    100.00% |           0      0.00%    100.00% |           0      0.00%    100.00% |           0      0.00%    100.00% |           0      0.00%    100.00% |           0      0.00%    100.00% |           0      0.00%    100.00% |           0      0.00%    100.00% |           0      0.00%    100.00% |           0      0.00%    100.00% |           0      0.00%    100.00% |           0      0.00%    100.00% |           0      0.00%    100.00% |           0      0.00%    100.00% |           0      0.00%    100.00%
system.ruby.L2Cache_Controller.MT_MB.L1_PUTX::total            2                      
system.ruby.L2Cache_Controller.MT_MB.Exclusive_Unblock |      172866      8.47%      8.47% |       64291      3.15%     11.62% |       58778      2.88%     14.50% |       58486      2.87%     17.36% |       57828      2.83%     20.20% |       56526      2.77%     22.97% |       55034      2.70%     25.66% |       55323      2.71%     28.37% |       58971      2.89%     31.26% |       57739      2.83%     34.09% |       60673      2.97%     37.06% |       60229      2.95%     40.01% |       56885      2.79%     42.80% |       56812      2.78%     45.58% |       56472      2.77%     48.35% |       56890      2.79%     51.14% |       58895      2.89%     54.02% |       58536      2.87%     56.89% |       59907      2.93%     59.83% |       60901      2.98%     62.81% |       60928      2.99%     65.80% |       63118      3.09%     68.89% |       64350      3.15%     72.04% |       60569      2.97%     75.01% |       61025      2.99%     78.00% |       62491      3.06%     81.06% |       60820      2.98%     84.04% |       61443      3.01%     87.05% |       64117      3.14%     90.19% |       61937      3.03%     93.22% |       70050      3.43%     96.66% |       68240      3.34%    100.00%
system.ruby.L2Cache_Controller.MT_MB.Exclusive_Unblock::total      2041130                      
system.ruby.L2Cache_Controller.MT_IIB.WB_Data |           0      0.00%      0.00% |           0      0.00%      0.00% |           0      0.00%      0.00% |           0      0.00%      0.00% |           0      0.00%      0.00% |           1     50.00%     50.00% |           0      0.00%     50.00% |           0      0.00%     50.00% |           0      0.00%     50.00% |           0      0.00%     50.00% |           0      0.00%     50.00% |           0      0.00%     50.00% |           0      0.00%     50.00% |           0      0.00%     50.00% |           0      0.00%     50.00% |           0      0.00%     50.00% |           0      0.00%     50.00% |           0      0.00%     50.00% |           0      0.00%     50.00% |           0      0.00%     50.00% |           0      0.00%     50.00% |           0      0.00%     50.00% |           0      0.00%     50.00% |           0      0.00%     50.00% |           0      0.00%     50.00% |           0      0.00%     50.00% |           0      0.00%     50.00% |           0      0.00%     50.00% |           1     50.00%    100.00% |           0      0.00%    100.00% |           0      0.00%    100.00% |           0      0.00%    100.00%
system.ruby.L2Cache_Controller.MT_IIB.WB_Data::total            2                      
system.ruby.L2Cache_Controller.MT_IIB.WB_Data_clean |          19    100.00%    100.00% |           0      0.00%    100.00% |           0      0.00%    100.00% |           0      0.00%    100.00% |           0      0.00%    100.00% |           0      0.00%    100.00% |           0      0.00%    100.00% |           0      0.00%    100.00% |           0      0.00%    100.00% |           0      0.00%    100.00% |           0      0.00%    100.00% |           0      0.00%    100.00% |           0      0.00%    100.00% |           0      0.00%    100.00% |           0      0.00%    100.00% |           0      0.00%    100.00% |           0      0.00%    100.00% |           0      0.00%    100.00% |           0      0.00%    100.00% |           0      0.00%    100.00% |           0      0.00%    100.00% |           0      0.00%    100.00% |           0      0.00%    100.00% |           0      0.00%    100.00% |           0      0.00%    100.00% |           0      0.00%    100.00% |           0      0.00%    100.00% |           0      0.00%    100.00% |           0      0.00%    100.00% |           0      0.00%    100.00% |           0      0.00%    100.00% |           0      0.00%    100.00%
system.ruby.L2Cache_Controller.MT_IIB.WB_Data_clean::total           19                      
system.ruby.L2Cache_Controller.MT_SB.Unblock |          19     90.48%     90.48% |           0      0.00%     90.48% |           0      0.00%     90.48% |           0      0.00%     90.48% |           0      0.00%     90.48% |           1      4.76%     95.24% |           0      0.00%     95.24% |           0      0.00%     95.24% |           0      0.00%     95.24% |           0      0.00%     95.24% |           0      0.00%     95.24% |           0      0.00%     95.24% |           0      0.00%     95.24% |           0      0.00%     95.24% |           0      0.00%     95.24% |           0      0.00%     95.24% |           0      0.00%     95.24% |           0      0.00%     95.24% |           0      0.00%     95.24% |           0      0.00%     95.24% |           0      0.00%     95.24% |           0      0.00%     95.24% |           0      0.00%     95.24% |           0      0.00%     95.24% |           0      0.00%     95.24% |           0      0.00%     95.24% |           0      0.00%     95.24% |           0      0.00%     95.24% |           1      4.76%    100.00% |           0      0.00%    100.00% |           0      0.00%    100.00% |           0      0.00%    100.00%
system.ruby.L2Cache_Controller.MT_SB.Unblock::total           21                      
system.ruby.SimicsNetworkPortInterface_Controller.MessageSend |      136492     21.90%     21.90% |      311696     50.00%     71.90% |       11212      1.80%     73.69% |       11614      1.86%     75.56% |       11231      1.80%     77.36% |       11651      1.87%     79.23% |       11183      1.79%     81.02% |       11630      1.87%     82.89% |       10473      1.68%     84.57% |       10901      1.75%     86.32% |       10477      1.68%     88.00% |       10734      1.72%     89.72% |       11008      1.77%     91.48% |       10743      1.72%     93.21% |       10021      1.61%     94.81% |       10477      1.68%     96.50% |       10691      1.71%     98.21% |       11158      1.79%    100.00% |           0      0.00%    100.00% |           0      0.00%    100.00% |           0      0.00%    100.00% |           0      0.00%    100.00% |           0      0.00%    100.00% |           0      0.00%    100.00% |           0      0.00%    100.00% |           0      0.00%    100.00% |           0      0.00%    100.00% |           0      0.00%    100.00% |           0      0.00%    100.00% |           0      0.00%    100.00% |           0      0.00%    100.00% |           0      0.00%    100.00%
system.ruby.SimicsNetworkPortInterface_Controller.MessageSend::total       623392                      
system.ruby.SimicsNetworkPortInterface_Controller.MessageRecv |      136492     21.90%     21.90% |      311696     50.00%     71.90% |       11212      1.80%     73.69% |       11614      1.86%     75.56% |       11231      1.80%     77.36% |       11651      1.87%     79.23% |       11183      1.79%     81.02% |       11630      1.87%     82.89% |       10473      1.68%     84.57% |       10901      1.75%     86.32% |       10477      1.68%     88.00% |       10734      1.72%     89.72% |       11008      1.77%     91.48% |       10743      1.72%     93.21% |       10021      1.61%     94.81% |       10477      1.68%     96.50% |       10691      1.71%     98.21% |       11158      1.79%    100.00% |           0      0.00%    100.00% |           0      0.00%    100.00% |           0      0.00%    100.00% |           0      0.00%    100.00% |           0      0.00%    100.00% |           0      0.00%    100.00% |           0      0.00%    100.00% |           0      0.00%    100.00% |           0      0.00%    100.00% |           0      0.00%    100.00% |           0      0.00%    100.00% |           0      0.00%    100.00% |           0      0.00%    100.00% |           0      0.00%    100.00%
system.ruby.SimicsNetworkPortInterface_Controller.MessageRecv::total       623392                      
system.ruby.SimicsNetworkPortInterface_Controller.A.MessageSend |      136492     21.90%     21.90% |      311696     50.00%     71.90% |       11212      1.80%     73.69% |       11614      1.86%     75.56% |       11231      1.80%     77.36% |       11651      1.87%     79.23% |       11183      1.79%     81.02% |       11630      1.87%     82.89% |       10473      1.68%     84.57% |       10901      1.75%     86.32% |       10477      1.68%     88.00% |       10734      1.72%     89.72% |       11008      1.77%     91.48% |       10743      1.72%     93.21% |       10021      1.61%     94.81% |       10477      1.68%     96.50% |       10691      1.71%     98.21% |       11158      1.79%    100.00% |           0      0.00%    100.00% |           0      0.00%    100.00% |           0      0.00%    100.00% |           0      0.00%    100.00% |           0      0.00%    100.00% |           0      0.00%    100.00% |           0      0.00%    100.00% |           0      0.00%    100.00% |           0      0.00%    100.00% |           0      0.00%    100.00% |           0      0.00%    100.00% |           0      0.00%    100.00% |           0      0.00%    100.00% |           0      0.00%    100.00%
system.ruby.SimicsNetworkPortInterface_Controller.A.MessageSend::total       623392                      
system.ruby.SimicsNetworkPortInterface_Controller.A.MessageRecv |      136492     21.90%     21.90% |      311696     50.00%     71.90% |       11212      1.80%     73.69% |       11614      1.86%     75.56% |       11231      1.80%     77.36% |       11651      1.87%     79.23% |       11183      1.79%     81.02% |       11630      1.87%     82.89% |       10473      1.68%     84.57% |       10901      1.75%     86.32% |       10477      1.68%     88.00% |       10734      1.72%     89.72% |       11008      1.77%     91.48% |       10743      1.72%     93.21% |       10021      1.61%     94.81% |       10477      1.68%     96.50% |       10691      1.71%     98.21% |       11158      1.79%    100.00% |           0      0.00%    100.00% |           0      0.00%    100.00% |           0      0.00%    100.00% |           0      0.00%    100.00% |           0      0.00%    100.00% |           0      0.00%    100.00% |           0      0.00%    100.00% |           0      0.00%    100.00% |           0      0.00%    100.00% |           0      0.00%    100.00% |           0      0.00%    100.00% |           0      0.00%    100.00% |           0      0.00%    100.00% |           0      0.00%    100.00%
system.ruby.SimicsNetworkPortInterface_Controller.A.MessageRecv::total       623392                      
system.switch_cpus.kern.inst.arm                    0                       # number of arm instructions executed
system.switch_cpus.kern.inst.quiesce                0                       # number of quiesce instructions executed

---------- End Simulation Statistics   ----------
