
---------- Begin Simulation Statistics ----------
sim_seconds                                  0.127681                       # Number of seconds simulated
sim_ticks                                127681055500                       # Number of ticks simulated
final_tick                               5303849134000                       # Number of ticks from beginning of simulation (restored from checkpoints and never reset)
sim_freq                                 1000000000000                       # Frequency of simulated ticks
host_inst_rate                                  45454                       # Simulator instruction rate (inst/s)
host_op_rate                                    78884                       # Simulator op (including micro ops) rate (op/s)
host_tick_rate                               90050312                       # Simulator tick rate (ticks/s)
host_mem_usage                                9480968                       # Number of bytes of host memory used
host_seconds                                  1417.89                       # Real time elapsed on the host
sim_insts                                    64449128                       # Number of instructions simulated
sim_ops                                     111849002                       # Number of ops (including micro ops) simulated
system.voltage_domain.voltage                       1                       # Voltage in Volts
system.clk_domain.clock                           500                       # Clock period in ticks
system.mem_ctrls0.bytes_read::ruby.dir_cntrl0     43806400                       # Number of bytes read from this memory
system.mem_ctrls0.bytes_read::total          43806400                       # Number of bytes read from this memory
system.mem_ctrls0.bytes_written::ruby.dir_cntrl0     20118208                       # Number of bytes written to this memory
system.mem_ctrls0.bytes_written::total       20118208                       # Number of bytes written to this memory
system.mem_ctrls0.num_reads::ruby.dir_cntrl0       684475                       # Number of read requests responded to by this memory
system.mem_ctrls0.num_reads::total             684475                       # Number of read requests responded to by this memory
system.mem_ctrls0.num_writes::ruby.dir_cntrl0       314347                       # Number of write requests responded to by this memory
system.mem_ctrls0.num_writes::total            314347                       # Number of write requests responded to by this memory
system.mem_ctrls0.bw_read::ruby.dir_cntrl0    343092402                       # Total read bandwidth from this memory (bytes/s)
system.mem_ctrls0.bw_read::total            343092402                       # Total read bandwidth from this memory (bytes/s)
system.mem_ctrls0.bw_write::ruby.dir_cntrl0    157566116                       # Write bandwidth from this memory (bytes/s)
system.mem_ctrls0.bw_write::total           157566116                       # Write bandwidth from this memory (bytes/s)
system.mem_ctrls0.bw_total::ruby.dir_cntrl0    500658518                       # Total bandwidth to/from this memory (bytes/s)
system.mem_ctrls0.bw_total::total           500658518                       # Total bandwidth to/from this memory (bytes/s)
system.mem_ctrls0.readReqs                     684475                       # Number of read requests accepted
system.mem_ctrls0.writeReqs                    314347                       # Number of write requests accepted
system.mem_ctrls0.readBursts                   684475                       # Number of DRAM read bursts, including those serviced by the write queue
system.mem_ctrls0.writeBursts                  314347                       # Number of DRAM write bursts, including those merged in the write queue
system.mem_ctrls0.bytesReadDRAM              43786688                       # Total number of bytes read from DRAM
system.mem_ctrls0.bytesReadWrQ                  19712                       # Total number of bytes read from write queue
system.mem_ctrls0.bytesWritten               20117952                       # Total number of bytes written to DRAM
system.mem_ctrls0.bytesReadSys               43806400                       # Total read bytes from the system interface side
system.mem_ctrls0.bytesWrittenSys            20118208                       # Total written bytes from the system interface side
system.mem_ctrls0.servicedByWrQ                   308                       # Number of DRAM read bursts serviced by the write queue
system.mem_ctrls0.mergedWrBursts                    0                       # Number of DRAM write bursts merged with an existing one
system.mem_ctrls0.neitherReadNorWriteReqs            0                       # Number of requests that are neither read nor write
system.mem_ctrls0.perBankRdBursts::0            42811                       # Per bank write bursts
system.mem_ctrls0.perBankRdBursts::1            43196                       # Per bank write bursts
system.mem_ctrls0.perBankRdBursts::2            42631                       # Per bank write bursts
system.mem_ctrls0.perBankRdBursts::3            43118                       # Per bank write bursts
system.mem_ctrls0.perBankRdBursts::4            42404                       # Per bank write bursts
system.mem_ctrls0.perBankRdBursts::5            42534                       # Per bank write bursts
system.mem_ctrls0.perBankRdBursts::6            43312                       # Per bank write bursts
system.mem_ctrls0.perBankRdBursts::7            43007                       # Per bank write bursts
system.mem_ctrls0.perBankRdBursts::8            42356                       # Per bank write bursts
system.mem_ctrls0.perBankRdBursts::9            42844                       # Per bank write bursts
system.mem_ctrls0.perBankRdBursts::10           42618                       # Per bank write bursts
system.mem_ctrls0.perBankRdBursts::11           43107                       # Per bank write bursts
system.mem_ctrls0.perBankRdBursts::12           42187                       # Per bank write bursts
system.mem_ctrls0.perBankRdBursts::13           42313                       # Per bank write bursts
system.mem_ctrls0.perBankRdBursts::14           42881                       # Per bank write bursts
system.mem_ctrls0.perBankRdBursts::15           42848                       # Per bank write bursts
system.mem_ctrls0.perBankWrBursts::0            19596                       # Per bank write bursts
system.mem_ctrls0.perBankWrBursts::1            19734                       # Per bank write bursts
system.mem_ctrls0.perBankWrBursts::2            19634                       # Per bank write bursts
system.mem_ctrls0.perBankWrBursts::3            19810                       # Per bank write bursts
system.mem_ctrls0.perBankWrBursts::4            19620                       # Per bank write bursts
system.mem_ctrls0.perBankWrBursts::5            19708                       # Per bank write bursts
system.mem_ctrls0.perBankWrBursts::6            19722                       # Per bank write bursts
system.mem_ctrls0.perBankWrBursts::7            19787                       # Per bank write bursts
system.mem_ctrls0.perBankWrBursts::8            19555                       # Per bank write bursts
system.mem_ctrls0.perBankWrBursts::9            19747                       # Per bank write bursts
system.mem_ctrls0.perBankWrBursts::10           19532                       # Per bank write bursts
system.mem_ctrls0.perBankWrBursts::11           19699                       # Per bank write bursts
system.mem_ctrls0.perBankWrBursts::12           19473                       # Per bank write bursts
system.mem_ctrls0.perBankWrBursts::13           19572                       # Per bank write bursts
system.mem_ctrls0.perBankWrBursts::14           19621                       # Per bank write bursts
system.mem_ctrls0.perBankWrBursts::15           19533                       # Per bank write bursts
system.mem_ctrls0.numRdRetry                     1381                       # Number of times read queue was full causing retry
system.mem_ctrls0.numWrRetry                     2985                       # Number of times write queue was full causing retry
system.mem_ctrls0.totGap                 127680651500                       # Total gap between requests
system.mem_ctrls0.readPktSize::0                    0                       # Read request sizes (log2)
system.mem_ctrls0.readPktSize::1                    0                       # Read request sizes (log2)
system.mem_ctrls0.readPktSize::2                    0                       # Read request sizes (log2)
system.mem_ctrls0.readPktSize::3                    0                       # Read request sizes (log2)
system.mem_ctrls0.readPktSize::4                    0                       # Read request sizes (log2)
system.mem_ctrls0.readPktSize::5                    0                       # Read request sizes (log2)
system.mem_ctrls0.readPktSize::6               684475                       # Read request sizes (log2)
system.mem_ctrls0.writePktSize::0                   0                       # Write request sizes (log2)
system.mem_ctrls0.writePktSize::1                   0                       # Write request sizes (log2)
system.mem_ctrls0.writePktSize::2                   0                       # Write request sizes (log2)
system.mem_ctrls0.writePktSize::3                   0                       # Write request sizes (log2)
system.mem_ctrls0.writePktSize::4                   0                       # Write request sizes (log2)
system.mem_ctrls0.writePktSize::5                   0                       # Write request sizes (log2)
system.mem_ctrls0.writePktSize::6              314347                       # Write request sizes (log2)
system.mem_ctrls0.rdQLenPdf::0                 255590                       # What read queue length does an incoming req see
system.mem_ctrls0.rdQLenPdf::1                  99785                       # What read queue length does an incoming req see
system.mem_ctrls0.rdQLenPdf::2                  82244                       # What read queue length does an incoming req see
system.mem_ctrls0.rdQLenPdf::3                  63787                       # What read queue length does an incoming req see
system.mem_ctrls0.rdQLenPdf::4                  46245                       # What read queue length does an incoming req see
system.mem_ctrls0.rdQLenPdf::5                  33973                       # What read queue length does an incoming req see
system.mem_ctrls0.rdQLenPdf::6                  24672                       # What read queue length does an incoming req see
system.mem_ctrls0.rdQLenPdf::7                  17750                       # What read queue length does an incoming req see
system.mem_ctrls0.rdQLenPdf::8                  12975                       # What read queue length does an incoming req see
system.mem_ctrls0.rdQLenPdf::9                   9658                       # What read queue length does an incoming req see
system.mem_ctrls0.rdQLenPdf::10                  7347                       # What read queue length does an incoming req see
system.mem_ctrls0.rdQLenPdf::11                  5608                       # What read queue length does an incoming req see
system.mem_ctrls0.rdQLenPdf::12                  4424                       # What read queue length does an incoming req see
system.mem_ctrls0.rdQLenPdf::13                  3533                       # What read queue length does an incoming req see
system.mem_ctrls0.rdQLenPdf::14                  2837                       # What read queue length does an incoming req see
system.mem_ctrls0.rdQLenPdf::15                  2288                       # What read queue length does an incoming req see
system.mem_ctrls0.rdQLenPdf::16                  1819                       # What read queue length does an incoming req see
system.mem_ctrls0.rdQLenPdf::17                  1495                       # What read queue length does an incoming req see
system.mem_ctrls0.rdQLenPdf::18                  1205                       # What read queue length does an incoming req see
system.mem_ctrls0.rdQLenPdf::19                   987                       # What read queue length does an incoming req see
system.mem_ctrls0.rdQLenPdf::20                   818                       # What read queue length does an incoming req see
system.mem_ctrls0.rdQLenPdf::21                   668                       # What read queue length does an incoming req see
system.mem_ctrls0.rdQLenPdf::22                   581                       # What read queue length does an incoming req see
system.mem_ctrls0.rdQLenPdf::23                   465                       # What read queue length does an incoming req see
system.mem_ctrls0.rdQLenPdf::24                   414                       # What read queue length does an incoming req see
system.mem_ctrls0.rdQLenPdf::25                   322                       # What read queue length does an incoming req see
system.mem_ctrls0.rdQLenPdf::26                   283                       # What read queue length does an incoming req see
system.mem_ctrls0.rdQLenPdf::27                   237                       # What read queue length does an incoming req see
system.mem_ctrls0.rdQLenPdf::28                   220                       # What read queue length does an incoming req see
system.mem_ctrls0.rdQLenPdf::29                   168                       # What read queue length does an incoming req see
system.mem_ctrls0.rdQLenPdf::30                   175                       # What read queue length does an incoming req see
system.mem_ctrls0.rdQLenPdf::31                  1594                       # What read queue length does an incoming req see
system.mem_ctrls0.wrQLenPdf::0                  53000                       # What write queue length does an incoming req see
system.mem_ctrls0.wrQLenPdf::1                  58692                       # What write queue length does an incoming req see
system.mem_ctrls0.wrQLenPdf::2                  61186                       # What write queue length does an incoming req see
system.mem_ctrls0.wrQLenPdf::3                  61742                       # What write queue length does an incoming req see
system.mem_ctrls0.wrQLenPdf::4                  60437                       # What write queue length does an incoming req see
system.mem_ctrls0.wrQLenPdf::5                   8174                       # What write queue length does an incoming req see
system.mem_ctrls0.wrQLenPdf::6                   5194                       # What write queue length does an incoming req see
system.mem_ctrls0.wrQLenPdf::7                   5922                       # What write queue length does an incoming req see
system.mem_ctrls0.bytesPerActivate::samples       324260                       # Bytes accessed per row activation
system.mem_ctrls0.bytesPerActivate::mean   197.076815                       # Bytes accessed per row activation
system.mem_ctrls0.bytesPerActivate::gmean   151.734612                       # Bytes accessed per row activation
system.mem_ctrls0.bytesPerActivate::stdev   149.138970                       # Bytes accessed per row activation
system.mem_ctrls0.bytesPerActivate::0-127       105962     32.68%     32.68% # Bytes accessed per row activation
system.mem_ctrls0.bytesPerActivate::128-255       103912     32.05%     64.72% # Bytes accessed per row activation
system.mem_ctrls0.bytesPerActivate::256-383        77125     23.78%     88.51% # Bytes accessed per row activation
system.mem_ctrls0.bytesPerActivate::384-511        18033      5.56%     94.07% # Bytes accessed per row activation
system.mem_ctrls0.bytesPerActivate::512-639        13323      4.11%     98.18% # Bytes accessed per row activation
system.mem_ctrls0.bytesPerActivate::640-767         3075      0.95%     99.13% # Bytes accessed per row activation
system.mem_ctrls0.bytesPerActivate::768-895         1522      0.47%     99.60% # Bytes accessed per row activation
system.mem_ctrls0.bytesPerActivate::896-1023          838      0.26%     99.86% # Bytes accessed per row activation
system.mem_ctrls0.bytesPerActivate::1024-1151          470      0.14%    100.00% # Bytes accessed per row activation
system.mem_ctrls0.bytesPerActivate::total       324260                       # Bytes accessed per row activation
system.mem_ctrls0.rdPerTurnAround::samples        53479                       # Reads before turning the bus around for writes
system.mem_ctrls0.rdPerTurnAround::mean     12.793022                       # Reads before turning the bus around for writes
system.mem_ctrls0.rdPerTurnAround::stdev    27.062207                       # Reads before turning the bus around for writes
system.mem_ctrls0.rdPerTurnAround::0-127        53227     99.53%     99.53% # Reads before turning the bus around for writes
system.mem_ctrls0.rdPerTurnAround::128-255          190      0.36%     99.88% # Reads before turning the bus around for writes
system.mem_ctrls0.rdPerTurnAround::256-383           41      0.08%     99.96% # Reads before turning the bus around for writes
system.mem_ctrls0.rdPerTurnAround::384-511           11      0.02%     99.98% # Reads before turning the bus around for writes
system.mem_ctrls0.rdPerTurnAround::512-639            6      0.01%     99.99% # Reads before turning the bus around for writes
system.mem_ctrls0.rdPerTurnAround::640-767            2      0.00%    100.00% # Reads before turning the bus around for writes
system.mem_ctrls0.rdPerTurnAround::768-895            1      0.00%    100.00% # Reads before turning the bus around for writes
system.mem_ctrls0.rdPerTurnAround::3968-4095            1      0.00%    100.00% # Reads before turning the bus around for writes
system.mem_ctrls0.rdPerTurnAround::total        53479                       # Reads before turning the bus around for writes
system.mem_ctrls0.wrPerTurnAround::samples        53479                       # Writes before turning the bus around for reads
system.mem_ctrls0.wrPerTurnAround::mean      5.877877                       # Writes before turning the bus around for reads
system.mem_ctrls0.wrPerTurnAround::gmean     5.662269                       # Writes before turning the bus around for reads
system.mem_ctrls0.wrPerTurnAround::stdev     1.978423                       # Writes before turning the bus around for reads
system.mem_ctrls0.wrPerTurnAround::4-7          46807     87.52%     87.52% # Writes before turning the bus around for reads
system.mem_ctrls0.wrPerTurnAround::8-11          4929      9.22%     96.74% # Writes before turning the bus around for reads
system.mem_ctrls0.wrPerTurnAround::12-15         1115      2.08%     98.83% # Writes before turning the bus around for reads
system.mem_ctrls0.wrPerTurnAround::16-19          628      1.17%    100.00% # Writes before turning the bus around for reads
system.mem_ctrls0.wrPerTurnAround::total        53479                       # Writes before turning the bus around for reads
system.mem_ctrls0.totQLat                 30414901452                       # Total ticks spent queuing
system.mem_ctrls0.totMemAccLat            43243032702                       # Total ticks spent from burst creation until serviced by the DRAM
system.mem_ctrls0.totBusLat                3420835000                       # Total ticks spent in databus transfers
system.mem_ctrls0.avgQLat                    44455.38                       # Average queueing delay per DRAM burst
system.mem_ctrls0.avgBusLat                   5000.00                       # Average bus latency per DRAM burst
system.mem_ctrls0.avgMemAccLat               63205.38                       # Average memory access latency per DRAM burst
system.mem_ctrls0.avgRdBW                      342.94                       # Average DRAM read bandwidth in MiByte/s
system.mem_ctrls0.avgWrBW                      157.56                       # Average achieved write bandwidth in MiByte/s
system.mem_ctrls0.avgRdBWSys                   343.09                       # Average system read bandwidth in MiByte/s
system.mem_ctrls0.avgWrBWSys                   157.57                       # Average system write bandwidth in MiByte/s
system.mem_ctrls0.peakBW                     12800.00                       # Theoretical peak bandwidth in MiByte/s
system.mem_ctrls0.busUtil                        3.91                       # Data bus utilization in percentage
system.mem_ctrls0.busUtilRead                    2.68                       # Data bus utilization in percentage for reads
system.mem_ctrls0.busUtilWrite                   1.23                       # Data bus utilization in percentage for writes
system.mem_ctrls0.avgRdQLen                      1.40                       # Average read queue length when enqueuing
system.mem_ctrls0.avgWrQLen                      3.02                       # Average write queue length when enqueuing
system.mem_ctrls0.readRowHits                  501742                       # Number of row buffer hits during reads
system.mem_ctrls0.writeRowHits                 172505                       # Number of row buffer hits during writes
system.mem_ctrls0.readRowHitRate                73.34                       # Row buffer hit rate for reads
system.mem_ctrls0.writeRowHitRate               54.88                       # Row buffer hit rate for writes
system.mem_ctrls0.avgGap                    127831.24                       # Average gap between requests
system.mem_ctrls0.pageHitRate                   67.53                       # Row buffer hit rate, read and write combined
system.mem_ctrls0.memoryStateTime::IDLE   20236724750                       # Time in different power states
system.mem_ctrls0.memoryStateTime::REF     4263480000                       # Time in different power states
system.mem_ctrls0.memoryStateTime::PRE_PDN            0                       # Time in different power states
system.mem_ctrls0.memoryStateTime::ACT   103179101750                       # Time in different power states
system.mem_ctrls0.memoryStateTime::ACT_PDN            0                       # Time in different power states
system.mem_ctrls0.actEnergy::0             1232877240                       # Energy for activate commands per rank (pJ)
system.mem_ctrls0.actEnergy::1             1218528360                       # Energy for activate commands per rank (pJ)
system.mem_ctrls0.preEnergy::0              672700875                       # Energy for precharge commands per rank (pJ)
system.mem_ctrls0.preEnergy::1              664871625                       # Energy for precharge commands per rank (pJ)
system.mem_ctrls0.readEnergy::0            2675493600                       # Energy for read commands per rank (pJ)
system.mem_ctrls0.readEnergy::1            2660946600                       # Energy for read commands per rank (pJ)
system.mem_ctrls0.writeEnergy::0           1021319280                       # Energy for write commands per rank (pJ)
system.mem_ctrls0.writeEnergy::1           1015623360                       # Energy for write commands per rank (pJ)
system.mem_ctrls0.refreshEnergy::0         8339366880                       # Energy for refresh commands per rank (pJ)
system.mem_ctrls0.refreshEnergy::1         8339366880                       # Energy for refresh commands per rank (pJ)
system.mem_ctrls0.actBackEnergy::0        54759599325                       # Energy for active background per rank (pJ)
system.mem_ctrls0.actBackEnergy::1        54284706675                       # Energy for active background per rank (pJ)
system.mem_ctrls0.preBackEnergy::0        28572776250                       # Energy for precharge background per rank (pJ)
system.mem_ctrls0.preBackEnergy::1        28989348750                       # Energy for precharge background per rank (pJ)
system.mem_ctrls0.totalEnergy::0          97274133450                       # Total energy per rank (pJ)
system.mem_ctrls0.totalEnergy::1          97173392250                       # Total energy per rank (pJ)
system.mem_ctrls0.averagePower::0          761.863663                       # Core power per rank (mW)
system.mem_ctrls0.averagePower::1          761.074645                       # Core power per rank (mW)
system.mem_ctrls1.bytes_read::ruby.dir_cntrl1     43241920                       # Number of bytes read from this memory
system.mem_ctrls1.bytes_read::total          43241920                       # Number of bytes read from this memory
system.mem_ctrls1.bytes_written::ruby.dir_cntrl1     19536128                       # Number of bytes written to this memory
system.mem_ctrls1.bytes_written::total       19536128                       # Number of bytes written to this memory
system.mem_ctrls1.num_reads::ruby.dir_cntrl1       675655                       # Number of read requests responded to by this memory
system.mem_ctrls1.num_reads::total             675655                       # Number of read requests responded to by this memory
system.mem_ctrls1.num_writes::ruby.dir_cntrl1       305252                       # Number of write requests responded to by this memory
system.mem_ctrls1.num_writes::total            305252                       # Number of write requests responded to by this memory
system.mem_ctrls1.bw_read::ruby.dir_cntrl1    338671386                       # Total read bandwidth from this memory (bytes/s)
system.mem_ctrls1.bw_read::total            338671386                       # Total read bandwidth from this memory (bytes/s)
system.mem_ctrls1.bw_write::ruby.dir_cntrl1    153007256                       # Write bandwidth from this memory (bytes/s)
system.mem_ctrls1.bw_write::total           153007256                       # Write bandwidth from this memory (bytes/s)
system.mem_ctrls1.bw_total::ruby.dir_cntrl1    491678642                       # Total bandwidth to/from this memory (bytes/s)
system.mem_ctrls1.bw_total::total           491678642                       # Total bandwidth to/from this memory (bytes/s)
system.mem_ctrls1.readReqs                     675655                       # Number of read requests accepted
system.mem_ctrls1.writeReqs                    305252                       # Number of write requests accepted
system.mem_ctrls1.readBursts                   675655                       # Number of DRAM read bursts, including those serviced by the write queue
system.mem_ctrls1.writeBursts                  305252                       # Number of DRAM write bursts, including those merged in the write queue
system.mem_ctrls1.bytesReadDRAM              43222272                       # Total number of bytes read from DRAM
system.mem_ctrls1.bytesReadWrQ                  19648                       # Total number of bytes read from write queue
system.mem_ctrls1.bytesWritten               19535872                       # Total number of bytes written to DRAM
system.mem_ctrls1.bytesReadSys               43241920                       # Total read bytes from the system interface side
system.mem_ctrls1.bytesWrittenSys            19536128                       # Total written bytes from the system interface side
system.mem_ctrls1.servicedByWrQ                   307                       # Number of DRAM read bursts serviced by the write queue
system.mem_ctrls1.mergedWrBursts                    0                       # Number of DRAM write bursts merged with an existing one
system.mem_ctrls1.neitherReadNorWriteReqs            0                       # Number of requests that are neither read nor write
system.mem_ctrls1.perBankRdBursts::0            42351                       # Per bank write bursts
system.mem_ctrls1.perBankRdBursts::1            42415                       # Per bank write bursts
system.mem_ctrls1.perBankRdBursts::2            42282                       # Per bank write bursts
system.mem_ctrls1.perBankRdBursts::3            42342                       # Per bank write bursts
system.mem_ctrls1.perBankRdBursts::4            41836                       # Per bank write bursts
system.mem_ctrls1.perBankRdBursts::5            41980                       # Per bank write bursts
system.mem_ctrls1.perBankRdBursts::6            43290                       # Per bank write bursts
system.mem_ctrls1.perBankRdBursts::7            42468                       # Per bank write bursts
system.mem_ctrls1.perBankRdBursts::8            41873                       # Per bank write bursts
system.mem_ctrls1.perBankRdBursts::9            42113                       # Per bank write bursts
system.mem_ctrls1.perBankRdBursts::10           42118                       # Per bank write bursts
system.mem_ctrls1.perBankRdBursts::11           42342                       # Per bank write bursts
system.mem_ctrls1.perBankRdBursts::12           41478                       # Per bank write bursts
system.mem_ctrls1.perBankRdBursts::13           41736                       # Per bank write bursts
system.mem_ctrls1.perBankRdBursts::14           42491                       # Per bank write bursts
system.mem_ctrls1.perBankRdBursts::15           42233                       # Per bank write bursts
system.mem_ctrls1.perBankWrBursts::0            19059                       # Per bank write bursts
system.mem_ctrls1.perBankWrBursts::1            19145                       # Per bank write bursts
system.mem_ctrls1.perBankWrBursts::2            19114                       # Per bank write bursts
system.mem_ctrls1.perBankWrBursts::3            19258                       # Per bank write bursts
system.mem_ctrls1.perBankWrBursts::4            19031                       # Per bank write bursts
system.mem_ctrls1.perBankWrBursts::5            19118                       # Per bank write bursts
system.mem_ctrls1.perBankWrBursts::6            19194                       # Per bank write bursts
system.mem_ctrls1.perBankWrBursts::7            19282                       # Per bank write bursts
system.mem_ctrls1.perBankWrBursts::8            18954                       # Per bank write bursts
system.mem_ctrls1.perBankWrBursts::9            19149                       # Per bank write bursts
system.mem_ctrls1.perBankWrBursts::10           18926                       # Per bank write bursts
system.mem_ctrls1.perBankWrBursts::11           19135                       # Per bank write bursts
system.mem_ctrls1.perBankWrBursts::12           18881                       # Per bank write bursts
system.mem_ctrls1.perBankWrBursts::13           18958                       # Per bank write bursts
system.mem_ctrls1.perBankWrBursts::14           19025                       # Per bank write bursts
system.mem_ctrls1.perBankWrBursts::15           19019                       # Per bank write bursts
system.mem_ctrls1.numRdRetry                     1230                       # Number of times read queue was full causing retry
system.mem_ctrls1.numWrRetry                     2771                       # Number of times write queue was full causing retry
system.mem_ctrls1.totGap                 127680389000                       # Total gap between requests
system.mem_ctrls1.readPktSize::0                    0                       # Read request sizes (log2)
system.mem_ctrls1.readPktSize::1                    0                       # Read request sizes (log2)
system.mem_ctrls1.readPktSize::2                    0                       # Read request sizes (log2)
system.mem_ctrls1.readPktSize::3                    0                       # Read request sizes (log2)
system.mem_ctrls1.readPktSize::4                    0                       # Read request sizes (log2)
system.mem_ctrls1.readPktSize::5                    0                       # Read request sizes (log2)
system.mem_ctrls1.readPktSize::6               675655                       # Read request sizes (log2)
system.mem_ctrls1.writePktSize::0                   0                       # Write request sizes (log2)
system.mem_ctrls1.writePktSize::1                   0                       # Write request sizes (log2)
system.mem_ctrls1.writePktSize::2                   0                       # Write request sizes (log2)
system.mem_ctrls1.writePktSize::3                   0                       # Write request sizes (log2)
system.mem_ctrls1.writePktSize::4                   0                       # Write request sizes (log2)
system.mem_ctrls1.writePktSize::5                   0                       # Write request sizes (log2)
system.mem_ctrls1.writePktSize::6              305252                       # Write request sizes (log2)
system.mem_ctrls1.rdQLenPdf::0                 248632                       # What read queue length does an incoming req see
system.mem_ctrls1.rdQLenPdf::1                  98568                       # What read queue length does an incoming req see
system.mem_ctrls1.rdQLenPdf::2                  83071                       # What read queue length does an incoming req see
system.mem_ctrls1.rdQLenPdf::3                  63062                       # What read queue length does an incoming req see
system.mem_ctrls1.rdQLenPdf::4                  45339                       # What read queue length does an incoming req see
system.mem_ctrls1.rdQLenPdf::5                  33703                       # What read queue length does an incoming req see
system.mem_ctrls1.rdQLenPdf::6                  24575                       # What read queue length does an incoming req see
system.mem_ctrls1.rdQLenPdf::7                  17937                       # What read queue length does an incoming req see
system.mem_ctrls1.rdQLenPdf::8                  12951                       # What read queue length does an incoming req see
system.mem_ctrls1.rdQLenPdf::9                   9698                       # What read queue length does an incoming req see
system.mem_ctrls1.rdQLenPdf::10                  7446                       # What read queue length does an incoming req see
system.mem_ctrls1.rdQLenPdf::11                  5619                       # What read queue length does an incoming req see
system.mem_ctrls1.rdQLenPdf::12                  4429                       # What read queue length does an incoming req see
system.mem_ctrls1.rdQLenPdf::13                  3531                       # What read queue length does an incoming req see
system.mem_ctrls1.rdQLenPdf::14                  2867                       # What read queue length does an incoming req see
system.mem_ctrls1.rdQLenPdf::15                  2268                       # What read queue length does an incoming req see
system.mem_ctrls1.rdQLenPdf::16                  1859                       # What read queue length does an incoming req see
system.mem_ctrls1.rdQLenPdf::17                  1504                       # What read queue length does an incoming req see
system.mem_ctrls1.rdQLenPdf::18                  1210                       # What read queue length does an incoming req see
system.mem_ctrls1.rdQLenPdf::19                  1034                       # What read queue length does an incoming req see
system.mem_ctrls1.rdQLenPdf::20                   875                       # What read queue length does an incoming req see
system.mem_ctrls1.rdQLenPdf::21                   762                       # What read queue length does an incoming req see
system.mem_ctrls1.rdQLenPdf::22                   633                       # What read queue length does an incoming req see
system.mem_ctrls1.rdQLenPdf::23                   503                       # What read queue length does an incoming req see
system.mem_ctrls1.rdQLenPdf::24                   420                       # What read queue length does an incoming req see
system.mem_ctrls1.rdQLenPdf::25                   339                       # What read queue length does an incoming req see
system.mem_ctrls1.rdQLenPdf::26                   286                       # What read queue length does an incoming req see
system.mem_ctrls1.rdQLenPdf::27                   244                       # What read queue length does an incoming req see
system.mem_ctrls1.rdQLenPdf::28                   221                       # What read queue length does an incoming req see
system.mem_ctrls1.rdQLenPdf::29                   192                       # What read queue length does an incoming req see
system.mem_ctrls1.rdQLenPdf::30                   169                       # What read queue length does an incoming req see
system.mem_ctrls1.rdQLenPdf::31                  1401                       # What read queue length does an incoming req see
system.mem_ctrls1.wrQLenPdf::0                  51384                       # What write queue length does an incoming req see
system.mem_ctrls1.wrQLenPdf::1                  57167                       # What write queue length does an incoming req see
system.mem_ctrls1.wrQLenPdf::2                  59421                       # What write queue length does an incoming req see
system.mem_ctrls1.wrQLenPdf::3                  59962                       # What write queue length does an incoming req see
system.mem_ctrls1.wrQLenPdf::4                  58830                       # What write queue length does an incoming req see
system.mem_ctrls1.wrQLenPdf::5                   7923                       # What write queue length does an incoming req see
system.mem_ctrls1.wrQLenPdf::6                   4994                       # What write queue length does an incoming req see
system.mem_ctrls1.wrQLenPdf::7                   5571                       # What write queue length does an incoming req see
system.mem_ctrls1.bytesPerActivate::samples       310163                       # Bytes accessed per row activation
system.mem_ctrls1.bytesPerActivate::mean   202.335933                       # Bytes accessed per row activation
system.mem_ctrls1.bytesPerActivate::gmean   155.636558                       # Bytes accessed per row activation
system.mem_ctrls1.bytesPerActivate::stdev   151.422174                       # Bytes accessed per row activation
system.mem_ctrls1.bytesPerActivate::0-127        99075     31.94%     31.94% # Bytes accessed per row activation
system.mem_ctrls1.bytesPerActivate::128-255        95882     30.91%     62.86% # Bytes accessed per row activation
system.mem_ctrls1.bytesPerActivate::256-383        77628     25.03%     87.88% # Bytes accessed per row activation
system.mem_ctrls1.bytesPerActivate::384-511        17977      5.80%     93.68% # Bytes accessed per row activation
system.mem_ctrls1.bytesPerActivate::512-639        13591      4.38%     98.06% # Bytes accessed per row activation
system.mem_ctrls1.bytesPerActivate::640-767         3128      1.01%     99.07% # Bytes accessed per row activation
system.mem_ctrls1.bytesPerActivate::768-895         1552      0.50%     99.57% # Bytes accessed per row activation
system.mem_ctrls1.bytesPerActivate::896-1023          878      0.28%     99.85% # Bytes accessed per row activation
system.mem_ctrls1.bytesPerActivate::1024-1151          452      0.15%    100.00% # Bytes accessed per row activation
system.mem_ctrls1.bytesPerActivate::total       310163                       # Bytes accessed per row activation
system.mem_ctrls1.rdPerTurnAround::samples        51860                       # Reads before turning the bus around for writes
system.mem_ctrls1.rdPerTurnAround::mean     13.022349                       # Reads before turning the bus around for writes
system.mem_ctrls1.rdPerTurnAround::stdev    25.083842                       # Reads before turning the bus around for writes
system.mem_ctrls1.rdPerTurnAround::0-127        51614     99.53%     99.53% # Reads before turning the bus around for writes
system.mem_ctrls1.rdPerTurnAround::128-255          189      0.36%     99.89% # Reads before turning the bus around for writes
system.mem_ctrls1.rdPerTurnAround::256-383           36      0.07%     99.96% # Reads before turning the bus around for writes
system.mem_ctrls1.rdPerTurnAround::384-511           12      0.02%     99.98% # Reads before turning the bus around for writes
system.mem_ctrls1.rdPerTurnAround::512-639            3      0.01%     99.99% # Reads before turning the bus around for writes
system.mem_ctrls1.rdPerTurnAround::640-767            3      0.01%     99.99% # Reads before turning the bus around for writes
system.mem_ctrls1.rdPerTurnAround::768-895            1      0.00%    100.00% # Reads before turning the bus around for writes
system.mem_ctrls1.rdPerTurnAround::1152-1279            1      0.00%    100.00% # Reads before turning the bus around for writes
system.mem_ctrls1.rdPerTurnAround::2816-2943            1      0.00%    100.00% # Reads before turning the bus around for writes
system.mem_ctrls1.rdPerTurnAround::total        51860                       # Reads before turning the bus around for writes
system.mem_ctrls1.wrPerTurnAround::samples        51860                       # Writes before turning the bus around for reads
system.mem_ctrls1.wrPerTurnAround::mean      5.886001                       # Writes before turning the bus around for reads
system.mem_ctrls1.wrPerTurnAround::gmean     5.669036                       # Writes before turning the bus around for reads
system.mem_ctrls1.wrPerTurnAround::stdev     1.983999                       # Writes before turning the bus around for reads
system.mem_ctrls1.wrPerTurnAround::4-7          45275     87.30%     87.30% # Writes before turning the bus around for reads
system.mem_ctrls1.wrPerTurnAround::8-11          4899      9.45%     96.75% # Writes before turning the bus around for reads
system.mem_ctrls1.wrPerTurnAround::12-15         1067      2.06%     98.81% # Writes before turning the bus around for reads
system.mem_ctrls1.wrPerTurnAround::16-19          619      1.19%    100.00% # Writes before turning the bus around for reads
system.mem_ctrls1.wrPerTurnAround::total        51860                       # Writes before turning the bus around for reads
system.mem_ctrls1.totQLat                 30064608524                       # Total ticks spent queuing
system.mem_ctrls1.totMemAccLat            42727383524                       # Total ticks spent from burst creation until serviced by the DRAM
system.mem_ctrls1.totBusLat                3376740000                       # Total ticks spent in databus transfers
system.mem_ctrls1.avgQLat                    44517.21                       # Average queueing delay per DRAM burst
system.mem_ctrls1.avgBusLat                   5000.00                       # Average bus latency per DRAM burst
system.mem_ctrls1.avgMemAccLat               63267.21                       # Average memory access latency per DRAM burst
system.mem_ctrls1.avgRdBW                      338.52                       # Average DRAM read bandwidth in MiByte/s
system.mem_ctrls1.avgWrBW                      153.01                       # Average achieved write bandwidth in MiByte/s
system.mem_ctrls1.avgRdBWSys                   338.67                       # Average system read bandwidth in MiByte/s
system.mem_ctrls1.avgWrBWSys                   153.01                       # Average system write bandwidth in MiByte/s
system.mem_ctrls1.peakBW                     12800.00                       # Theoretical peak bandwidth in MiByte/s
system.mem_ctrls1.busUtil                        3.84                       # Data bus utilization in percentage
system.mem_ctrls1.busUtilRead                    2.64                       # Data bus utilization in percentage for reads
system.mem_ctrls1.busUtilWrite                   1.20                       # Data bus utilization in percentage for writes
system.mem_ctrls1.avgRdQLen                      1.40                       # Average read queue length when enqueuing
system.mem_ctrls1.avgWrQLen                      3.01                       # Average write queue length when enqueuing
system.mem_ctrls1.readRowHits                  498878                       # Number of row buffer hits during reads
system.mem_ctrls1.writeRowHits                 171547                       # Number of row buffer hits during writes
system.mem_ctrls1.readRowHitRate                73.87                       # Row buffer hit rate for reads
system.mem_ctrls1.writeRowHitRate               56.20                       # Row buffer hit rate for writes
system.mem_ctrls1.avgGap                    130165.64                       # Average gap between requests
system.mem_ctrls1.pageHitRate                   68.37                       # Row buffer hit rate, read and write combined
system.mem_ctrls1.memoryStateTime::IDLE   20726573250                       # Time in different power states
system.mem_ctrls1.memoryStateTime::REF     4263480000                       # Time in different power states
system.mem_ctrls1.memoryStateTime::PRE_PDN            0                       # Time in different power states
system.mem_ctrls1.memoryStateTime::ACT   102689351250                       # Time in different power states
system.mem_ctrls1.memoryStateTime::ACT_PDN            0                       # Time in different power states
system.mem_ctrls1.actEnergy::0             1180395720                       # Energy for activate commands per rank (pJ)
system.mem_ctrls1.actEnergy::1             1164421440                       # Energy for activate commands per rank (pJ)
system.mem_ctrls1.preEnergy::0              644065125                       # Energy for precharge commands per rank (pJ)
system.mem_ctrls1.preEnergy::1              635349000                       # Energy for precharge commands per rank (pJ)
system.mem_ctrls1.readEnergy::0            2643888000                       # Energy for read commands per rank (pJ)
system.mem_ctrls1.readEnergy::1            2623717200                       # Energy for read commands per rank (pJ)
system.mem_ctrls1.writeEnergy::0            992729520                       # Energy for write commands per rank (pJ)
system.mem_ctrls1.writeEnergy::1            985245120                       # Energy for write commands per rank (pJ)
system.mem_ctrls1.refreshEnergy::0         8339366880                       # Energy for refresh commands per rank (pJ)
system.mem_ctrls1.refreshEnergy::1         8339366880                       # Energy for refresh commands per rank (pJ)
system.mem_ctrls1.actBackEnergy::0        53549646075                       # Energy for active background per rank (pJ)
system.mem_ctrls1.actBackEnergy::1        53323543890                       # Energy for active background per rank (pJ)
system.mem_ctrls1.preBackEnergy::0        29634138750                       # Energy for precharge background per rank (pJ)
system.mem_ctrls1.preBackEnergy::1        29832474000                       # Energy for precharge background per rank (pJ)
system.mem_ctrls1.totalEnergy::0          96984230070                       # Total energy per rank (pJ)
system.mem_ctrls1.totalEnergy::1          96904117530                       # Total energy per rank (pJ)
system.mem_ctrls1.averagePower::0          759.593102                       # Core power per rank (mW)
system.mem_ctrls1.averagePower::1          758.965650                       # Core power per rank (mW)
system.mem_ctrls2.bytes_read::ruby.dir_cntrl2     43236736                       # Number of bytes read from this memory
system.mem_ctrls2.bytes_read::total          43236736                       # Number of bytes read from this memory
system.mem_ctrls2.bytes_written::ruby.dir_cntrl2     19539200                       # Number of bytes written to this memory
system.mem_ctrls2.bytes_written::total       19539200                       # Number of bytes written to this memory
system.mem_ctrls2.num_reads::ruby.dir_cntrl2       675574                       # Number of read requests responded to by this memory
system.mem_ctrls2.num_reads::total             675574                       # Number of read requests responded to by this memory
system.mem_ctrls2.num_writes::ruby.dir_cntrl2       305300                       # Number of write requests responded to by this memory
system.mem_ctrls2.num_writes::total            305300                       # Number of write requests responded to by this memory
system.mem_ctrls2.bw_read::ruby.dir_cntrl2    338630785                       # Total read bandwidth from this memory (bytes/s)
system.mem_ctrls2.bw_read::total            338630785                       # Total read bandwidth from this memory (bytes/s)
system.mem_ctrls2.bw_write::ruby.dir_cntrl2    153031316                       # Write bandwidth from this memory (bytes/s)
system.mem_ctrls2.bw_write::total           153031316                       # Write bandwidth from this memory (bytes/s)
system.mem_ctrls2.bw_total::ruby.dir_cntrl2    491662101                       # Total bandwidth to/from this memory (bytes/s)
system.mem_ctrls2.bw_total::total           491662101                       # Total bandwidth to/from this memory (bytes/s)
system.mem_ctrls2.readReqs                     675574                       # Number of read requests accepted
system.mem_ctrls2.writeReqs                    305300                       # Number of write requests accepted
system.mem_ctrls2.readBursts                   675574                       # Number of DRAM read bursts, including those serviced by the write queue
system.mem_ctrls2.writeBursts                  305300                       # Number of DRAM write bursts, including those merged in the write queue
system.mem_ctrls2.bytesReadDRAM              43221888                       # Total number of bytes read from DRAM
system.mem_ctrls2.bytesReadWrQ                  14848                       # Total number of bytes read from write queue
system.mem_ctrls2.bytesWritten               19539072                       # Total number of bytes written to DRAM
system.mem_ctrls2.bytesReadSys               43236736                       # Total read bytes from the system interface side
system.mem_ctrls2.bytesWrittenSys            19539200                       # Total written bytes from the system interface side
system.mem_ctrls2.servicedByWrQ                   232                       # Number of DRAM read bursts serviced by the write queue
system.mem_ctrls2.mergedWrBursts                    0                       # Number of DRAM write bursts merged with an existing one
system.mem_ctrls2.neitherReadNorWriteReqs            0                       # Number of requests that are neither read nor write
system.mem_ctrls2.perBankRdBursts::0            42430                       # Per bank write bursts
system.mem_ctrls2.perBankRdBursts::1            42375                       # Per bank write bursts
system.mem_ctrls2.perBankRdBursts::2            42380                       # Per bank write bursts
system.mem_ctrls2.perBankRdBursts::3            42327                       # Per bank write bursts
system.mem_ctrls2.perBankRdBursts::4            41792                       # Per bank write bursts
system.mem_ctrls2.perBankRdBursts::5            41790                       # Per bank write bursts
system.mem_ctrls2.perBankRdBursts::6            43182                       # Per bank write bursts
system.mem_ctrls2.perBankRdBursts::7            42604                       # Per bank write bursts
system.mem_ctrls2.perBankRdBursts::8            42085                       # Per bank write bursts
system.mem_ctrls2.perBankRdBursts::9            41975                       # Per bank write bursts
system.mem_ctrls2.perBankRdBursts::10           42185                       # Per bank write bursts
system.mem_ctrls2.perBankRdBursts::11           42391                       # Per bank write bursts
system.mem_ctrls2.perBankRdBursts::12           41498                       # Per bank write bursts
system.mem_ctrls2.perBankRdBursts::13           41549                       # Per bank write bursts
system.mem_ctrls2.perBankRdBursts::14           42415                       # Per bank write bursts
system.mem_ctrls2.perBankRdBursts::15           42364                       # Per bank write bursts
system.mem_ctrls2.perBankWrBursts::0            19151                       # Per bank write bursts
system.mem_ctrls2.perBankWrBursts::1            19096                       # Per bank write bursts
system.mem_ctrls2.perBankWrBursts::2            19148                       # Per bank write bursts
system.mem_ctrls2.perBankWrBursts::3            19127                       # Per bank write bursts
system.mem_ctrls2.perBankWrBursts::4            19121                       # Per bank write bursts
system.mem_ctrls2.perBankWrBursts::5            19058                       # Per bank write bursts
system.mem_ctrls2.perBankWrBursts::6            19095                       # Per bank write bursts
system.mem_ctrls2.perBankWrBursts::7            19313                       # Per bank write bursts
system.mem_ctrls2.perBankWrBursts::8            19071                       # Per bank write bursts
system.mem_ctrls2.perBankWrBursts::9            19103                       # Per bank write bursts
system.mem_ctrls2.perBankWrBursts::10           18975                       # Per bank write bursts
system.mem_ctrls2.perBankWrBursts::11           19107                       # Per bank write bursts
system.mem_ctrls2.perBankWrBursts::12           18976                       # Per bank write bursts
system.mem_ctrls2.perBankWrBursts::13           18909                       # Per bank write bursts
system.mem_ctrls2.perBankWrBursts::14           18981                       # Per bank write bursts
system.mem_ctrls2.perBankWrBursts::15           19067                       # Per bank write bursts
system.mem_ctrls2.numRdRetry                     1693                       # Number of times read queue was full causing retry
system.mem_ctrls2.numWrRetry                     2996                       # Number of times write queue was full causing retry
system.mem_ctrls2.totGap                 127681003500                       # Total gap between requests
system.mem_ctrls2.readPktSize::0                    0                       # Read request sizes (log2)
system.mem_ctrls2.readPktSize::1                    0                       # Read request sizes (log2)
system.mem_ctrls2.readPktSize::2                    0                       # Read request sizes (log2)
system.mem_ctrls2.readPktSize::3                    0                       # Read request sizes (log2)
system.mem_ctrls2.readPktSize::4                    0                       # Read request sizes (log2)
system.mem_ctrls2.readPktSize::5                    0                       # Read request sizes (log2)
system.mem_ctrls2.readPktSize::6               675574                       # Read request sizes (log2)
system.mem_ctrls2.writePktSize::0                   0                       # Write request sizes (log2)
system.mem_ctrls2.writePktSize::1                   0                       # Write request sizes (log2)
system.mem_ctrls2.writePktSize::2                   0                       # Write request sizes (log2)
system.mem_ctrls2.writePktSize::3                   0                       # Write request sizes (log2)
system.mem_ctrls2.writePktSize::4                   0                       # Write request sizes (log2)
system.mem_ctrls2.writePktSize::5                   0                       # Write request sizes (log2)
system.mem_ctrls2.writePktSize::6              305300                       # Write request sizes (log2)
system.mem_ctrls2.rdQLenPdf::0                 249795                       # What read queue length does an incoming req see
system.mem_ctrls2.rdQLenPdf::1                  98271                       # What read queue length does an incoming req see
system.mem_ctrls2.rdQLenPdf::2                  80581                       # What read queue length does an incoming req see
system.mem_ctrls2.rdQLenPdf::3                  64322                       # What read queue length does an incoming req see
system.mem_ctrls2.rdQLenPdf::4                  45989                       # What read queue length does an incoming req see
system.mem_ctrls2.rdQLenPdf::5                  33891                       # What read queue length does an incoming req see
system.mem_ctrls2.rdQLenPdf::6                  24351                       # What read queue length does an incoming req see
system.mem_ctrls2.rdQLenPdf::7                  17603                       # What read queue length does an incoming req see
system.mem_ctrls2.rdQLenPdf::8                  12718                       # What read queue length does an incoming req see
system.mem_ctrls2.rdQLenPdf::9                   9632                       # What read queue length does an incoming req see
system.mem_ctrls2.rdQLenPdf::10                  7225                       # What read queue length does an incoming req see
system.mem_ctrls2.rdQLenPdf::11                  5491                       # What read queue length does an incoming req see
system.mem_ctrls2.rdQLenPdf::12                  4361                       # What read queue length does an incoming req see
system.mem_ctrls2.rdQLenPdf::13                  3493                       # What read queue length does an incoming req see
system.mem_ctrls2.rdQLenPdf::14                  2850                       # What read queue length does an incoming req see
system.mem_ctrls2.rdQLenPdf::15                  2221                       # What read queue length does an incoming req see
system.mem_ctrls2.rdQLenPdf::16                  1844                       # What read queue length does an incoming req see
system.mem_ctrls2.rdQLenPdf::17                  1515                       # What read queue length does an incoming req see
system.mem_ctrls2.rdQLenPdf::18                  1267                       # What read queue length does an incoming req see
system.mem_ctrls2.rdQLenPdf::19                  1049                       # What read queue length does an incoming req see
system.mem_ctrls2.rdQLenPdf::20                   911                       # What read queue length does an incoming req see
system.mem_ctrls2.rdQLenPdf::21                   724                       # What read queue length does an incoming req see
system.mem_ctrls2.rdQLenPdf::22                   642                       # What read queue length does an incoming req see
system.mem_ctrls2.rdQLenPdf::23                   534                       # What read queue length does an incoming req see
system.mem_ctrls2.rdQLenPdf::24                   439                       # What read queue length does an incoming req see
system.mem_ctrls2.rdQLenPdf::25                   353                       # What read queue length does an incoming req see
system.mem_ctrls2.rdQLenPdf::26                   305                       # What read queue length does an incoming req see
system.mem_ctrls2.rdQLenPdf::27                   286                       # What read queue length does an incoming req see
system.mem_ctrls2.rdQLenPdf::28                   289                       # What read queue length does an incoming req see
system.mem_ctrls2.rdQLenPdf::29                   240                       # What read queue length does an incoming req see
system.mem_ctrls2.rdQLenPdf::30                   222                       # What read queue length does an incoming req see
system.mem_ctrls2.rdQLenPdf::31                  1928                       # What read queue length does an incoming req see
system.mem_ctrls2.wrQLenPdf::0                  51460                       # What write queue length does an incoming req see
system.mem_ctrls2.wrQLenPdf::1                  57343                       # What write queue length does an incoming req see
system.mem_ctrls2.wrQLenPdf::2                  59079                       # What write queue length does an incoming req see
system.mem_ctrls2.wrQLenPdf::3                  59515                       # What write queue length does an incoming req see
system.mem_ctrls2.wrQLenPdf::4                  58385                       # What write queue length does an incoming req see
system.mem_ctrls2.wrQLenPdf::5                   8367                       # What write queue length does an incoming req see
system.mem_ctrls2.wrQLenPdf::6                   5190                       # What write queue length does an incoming req see
system.mem_ctrls2.wrQLenPdf::7                   5961                       # What write queue length does an incoming req see
system.mem_ctrls2.bytesPerActivate::samples       309161                       # Bytes accessed per row activation
system.mem_ctrls2.bytesPerActivate::mean   203.002681                       # Bytes accessed per row activation
system.mem_ctrls2.bytesPerActivate::gmean   156.214490                       # Bytes accessed per row activation
system.mem_ctrls2.bytesPerActivate::stdev   151.668462                       # Bytes accessed per row activation
system.mem_ctrls2.bytesPerActivate::0-127        98047     31.71%     31.71% # Bytes accessed per row activation
system.mem_ctrls2.bytesPerActivate::128-255        95388     30.85%     62.57% # Bytes accessed per row activation
system.mem_ctrls2.bytesPerActivate::256-383        77966     25.22%     87.79% # Bytes accessed per row activation
system.mem_ctrls2.bytesPerActivate::384-511        18187      5.88%     93.67% # Bytes accessed per row activation
system.mem_ctrls2.bytesPerActivate::512-639        13468      4.36%     98.03% # Bytes accessed per row activation
system.mem_ctrls2.bytesPerActivate::640-767         3238      1.05%     99.07% # Bytes accessed per row activation
system.mem_ctrls2.bytesPerActivate::768-895         1509      0.49%     99.56% # Bytes accessed per row activation
system.mem_ctrls2.bytesPerActivate::896-1023          902      0.29%     99.85% # Bytes accessed per row activation
system.mem_ctrls2.bytesPerActivate::1024-1151          456      0.15%    100.00% # Bytes accessed per row activation
system.mem_ctrls2.bytesPerActivate::total       309161                       # Bytes accessed per row activation
system.mem_ctrls2.rdPerTurnAround::samples        51892                       # Reads before turning the bus around for writes
system.mem_ctrls2.rdPerTurnAround::mean     13.014299                       # Reads before turning the bus around for writes
system.mem_ctrls2.rdPerTurnAround::stdev    25.163921                       # Reads before turning the bus around for writes
system.mem_ctrls2.rdPerTurnAround::0-127        51639     99.51%     99.51% # Reads before turning the bus around for writes
system.mem_ctrls2.rdPerTurnAround::128-255          193      0.37%     99.88% # Reads before turning the bus around for writes
system.mem_ctrls2.rdPerTurnAround::256-383           39      0.08%     99.96% # Reads before turning the bus around for writes
system.mem_ctrls2.rdPerTurnAround::384-511           10      0.02%     99.98% # Reads before turning the bus around for writes
system.mem_ctrls2.rdPerTurnAround::512-639            5      0.01%     99.99% # Reads before turning the bus around for writes
system.mem_ctrls2.rdPerTurnAround::640-767            4      0.01%    100.00% # Reads before turning the bus around for writes
system.mem_ctrls2.rdPerTurnAround::1152-1279            1      0.00%    100.00% # Reads before turning the bus around for writes
system.mem_ctrls2.rdPerTurnAround::2816-2943            1      0.00%    100.00% # Reads before turning the bus around for writes
system.mem_ctrls2.rdPerTurnAround::total        51892                       # Reads before turning the bus around for writes
system.mem_ctrls2.wrPerTurnAround::samples        51892                       # Writes before turning the bus around for reads
system.mem_ctrls2.wrPerTurnAround::mean      5.883335                       # Writes before turning the bus around for reads
system.mem_ctrls2.wrPerTurnAround::gmean     5.666728                       # Writes before turning the bus around for reads
system.mem_ctrls2.wrPerTurnAround::stdev     1.981665                       # Writes before turning the bus around for reads
system.mem_ctrls2.wrPerTurnAround::4-7          45324     87.34%     87.34% # Writes before turning the bus around for reads
system.mem_ctrls2.wrPerTurnAround::8-11          4867      9.38%     96.72% # Writes before turning the bus around for reads
system.mem_ctrls2.wrPerTurnAround::12-15         1127      2.17%     98.89% # Writes before turning the bus around for reads
system.mem_ctrls2.wrPerTurnAround::16-19          574      1.11%    100.00% # Writes before turning the bus around for reads
system.mem_ctrls2.wrPerTurnAround::total        51892                       # Writes before turning the bus around for reads
system.mem_ctrls2.totQLat                 30231638098                       # Total ticks spent queuing
system.mem_ctrls2.totMemAccLat            42894300598                       # Total ticks spent from burst creation until serviced by the DRAM
system.mem_ctrls2.totBusLat                3376710000                       # Total ticks spent in databus transfers
system.mem_ctrls2.avgQLat                    44764.93                       # Average queueing delay per DRAM burst
system.mem_ctrls2.avgBusLat                   5000.00                       # Average bus latency per DRAM burst
system.mem_ctrls2.avgMemAccLat               63514.93                       # Average memory access latency per DRAM burst
system.mem_ctrls2.avgRdBW                      338.51                       # Average DRAM read bandwidth in MiByte/s
system.mem_ctrls2.avgWrBW                      153.03                       # Average achieved write bandwidth in MiByte/s
system.mem_ctrls2.avgRdBWSys                   338.63                       # Average system read bandwidth in MiByte/s
system.mem_ctrls2.avgWrBWSys                   153.03                       # Average system write bandwidth in MiByte/s
system.mem_ctrls2.peakBW                     12800.00                       # Theoretical peak bandwidth in MiByte/s
system.mem_ctrls2.busUtil                        3.84                       # Data bus utilization in percentage
system.mem_ctrls2.busUtilRead                    2.64                       # Data bus utilization in percentage for reads
system.mem_ctrls2.busUtilWrite                   1.20                       # Data bus utilization in percentage for writes
system.mem_ctrls2.avgRdQLen                      1.40                       # Average read queue length when enqueuing
system.mem_ctrls2.avgWrQLen                      3.01                       # Average write queue length when enqueuing
system.mem_ctrls2.readRowHits                  499431                       # Number of row buffer hits during reads
system.mem_ctrls2.writeRowHits                 172043                       # Number of row buffer hits during writes
system.mem_ctrls2.readRowHitRate                73.95                       # Row buffer hit rate for reads
system.mem_ctrls2.writeRowHitRate               56.35                       # Row buffer hit rate for writes
system.mem_ctrls2.avgGap                    130170.65                       # Average gap between requests
system.mem_ctrls2.pageHitRate                   68.47                       # Row buffer hit rate, read and write combined
system.mem_ctrls2.memoryStateTime::IDLE   20847906250                       # Time in different power states
system.mem_ctrls2.memoryStateTime::REF     4263480000                       # Time in different power states
system.mem_ctrls2.memoryStateTime::PRE_PDN            0                       # Time in different power states
system.mem_ctrls2.memoryStateTime::ACT   102567815000                       # Time in different power states
system.mem_ctrls2.memoryStateTime::ACT_PDN            0                       # Time in different power states
system.mem_ctrls2.actEnergy::0             1175360760                       # Energy for activate commands per rank (pJ)
system.mem_ctrls2.actEnergy::1             1161851040                       # Energy for activate commands per rank (pJ)
system.mem_ctrls2.preEnergy::0              641317875                       # Energy for precharge commands per rank (pJ)
system.mem_ctrls2.preEnergy::1              633946500                       # Energy for precharge commands per rank (pJ)
system.mem_ctrls2.readEnergy::0            2643240600                       # Energy for read commands per rank (pJ)
system.mem_ctrls2.readEnergy::1            2624364600                       # Energy for read commands per rank (pJ)
system.mem_ctrls2.writeEnergy::0            992133360                       # Energy for write commands per rank (pJ)
system.mem_ctrls2.writeEnergy::1            986165280                       # Energy for write commands per rank (pJ)
system.mem_ctrls2.refreshEnergy::0         8339366880                       # Energy for refresh commands per rank (pJ)
system.mem_ctrls2.refreshEnergy::1         8339366880                       # Energy for refresh commands per rank (pJ)
system.mem_ctrls2.actBackEnergy::0        53791874415                       # Energy for active background per rank (pJ)
system.mem_ctrls2.actBackEnergy::1        53284700385                       # Energy for active background per rank (pJ)
system.mem_ctrls2.preBackEnergy::0        29421657750                       # Energy for precharge background per rank (pJ)
system.mem_ctrls2.preBackEnergy::1        29866547250                       # Energy for precharge background per rank (pJ)
system.mem_ctrls2.totalEnergy::0          97004951640                       # Total energy per rank (pJ)
system.mem_ctrls2.totalEnergy::1          96896941935                       # Total energy per rank (pJ)
system.mem_ctrls2.averagePower::0          759.755396                       # Core power per rank (mW)
system.mem_ctrls2.averagePower::1          758.909450                       # Core power per rank (mW)
system.mem_ctrls3.bytes_read::ruby.dir_cntrl3     43238912                       # Number of bytes read from this memory
system.mem_ctrls3.bytes_read::total          43238912                       # Number of bytes read from this memory
system.mem_ctrls3.bytes_written::ruby.dir_cntrl3     19552064                       # Number of bytes written to this memory
system.mem_ctrls3.bytes_written::total       19552064                       # Number of bytes written to this memory
system.mem_ctrls3.num_reads::ruby.dir_cntrl3       675608                       # Number of read requests responded to by this memory
system.mem_ctrls3.num_reads::total             675608                       # Number of read requests responded to by this memory
system.mem_ctrls3.num_writes::ruby.dir_cntrl3       305501                       # Number of write requests responded to by this memory
system.mem_ctrls3.num_writes::total            305501                       # Number of write requests responded to by this memory
system.mem_ctrls3.bw_read::ruby.dir_cntrl3    338647827                       # Total read bandwidth from this memory (bytes/s)
system.mem_ctrls3.bw_read::total            338647827                       # Total read bandwidth from this memory (bytes/s)
system.mem_ctrls3.bw_write::ruby.dir_cntrl3    153132067                       # Write bandwidth from this memory (bytes/s)
system.mem_ctrls3.bw_write::total           153132067                       # Write bandwidth from this memory (bytes/s)
system.mem_ctrls3.bw_total::ruby.dir_cntrl3    491779894                       # Total bandwidth to/from this memory (bytes/s)
system.mem_ctrls3.bw_total::total           491779894                       # Total bandwidth to/from this memory (bytes/s)
system.mem_ctrls3.readReqs                     675608                       # Number of read requests accepted
system.mem_ctrls3.writeReqs                    305501                       # Number of write requests accepted
system.mem_ctrls3.readBursts                   675608                       # Number of DRAM read bursts, including those serviced by the write queue
system.mem_ctrls3.writeBursts                  305501                       # Number of DRAM write bursts, including those merged in the write queue
system.mem_ctrls3.bytesReadDRAM              43221888                       # Total number of bytes read from DRAM
system.mem_ctrls3.bytesReadWrQ                  17024                       # Total number of bytes read from write queue
system.mem_ctrls3.bytesWritten               19551936                       # Total number of bytes written to DRAM
system.mem_ctrls3.bytesReadSys               43238912                       # Total read bytes from the system interface side
system.mem_ctrls3.bytesWrittenSys            19552064                       # Total written bytes from the system interface side
system.mem_ctrls3.servicedByWrQ                   266                       # Number of DRAM read bursts serviced by the write queue
system.mem_ctrls3.mergedWrBursts                    0                       # Number of DRAM write bursts merged with an existing one
system.mem_ctrls3.neitherReadNorWriteReqs            0                       # Number of requests that are neither read nor write
system.mem_ctrls3.perBankRdBursts::0            42463                       # Per bank write bursts
system.mem_ctrls3.perBankRdBursts::1            42538                       # Per bank write bursts
system.mem_ctrls3.perBankRdBursts::2            42133                       # Per bank write bursts
system.mem_ctrls3.perBankRdBursts::3            42594                       # Per bank write bursts
system.mem_ctrls3.perBankRdBursts::4            41798                       # Per bank write bursts
system.mem_ctrls3.perBankRdBursts::5            41877                       # Per bank write bursts
system.mem_ctrls3.perBankRdBursts::6            42860                       # Per bank write bursts
system.mem_ctrls3.perBankRdBursts::7            42465                       # Per bank write bursts
system.mem_ctrls3.perBankRdBursts::8            42005                       # Per bank write bursts
system.mem_ctrls3.perBankRdBursts::9            42139                       # Per bank write bursts
system.mem_ctrls3.perBankRdBursts::10           42098                       # Per bank write bursts
system.mem_ctrls3.perBankRdBursts::11           42436                       # Per bank write bursts
system.mem_ctrls3.perBankRdBursts::12           41656                       # Per bank write bursts
system.mem_ctrls3.perBankRdBursts::13           41619                       # Per bank write bursts
system.mem_ctrls3.perBankRdBursts::14           42328                       # Per bank write bursts
system.mem_ctrls3.perBankRdBursts::15           42333                       # Per bank write bursts
system.mem_ctrls3.perBankWrBursts::0            19186                       # Per bank write bursts
system.mem_ctrls3.perBankWrBursts::1            19112                       # Per bank write bursts
system.mem_ctrls3.perBankWrBursts::2            19153                       # Per bank write bursts
system.mem_ctrls3.perBankWrBursts::3            19206                       # Per bank write bursts
system.mem_ctrls3.perBankWrBursts::4            19150                       # Per bank write bursts
system.mem_ctrls3.perBankWrBursts::5            19111                       # Per bank write bursts
system.mem_ctrls3.perBankWrBursts::6            19099                       # Per bank write bursts
system.mem_ctrls3.perBankWrBursts::7            19214                       # Per bank write bursts
system.mem_ctrls3.perBankWrBursts::8            19085                       # Per bank write bursts
system.mem_ctrls3.perBankWrBursts::9            19148                       # Per bank write bursts
system.mem_ctrls3.perBankWrBursts::10           18986                       # Per bank write bursts
system.mem_ctrls3.perBankWrBursts::11           19099                       # Per bank write bursts
system.mem_ctrls3.perBankWrBursts::12           19026                       # Per bank write bursts
system.mem_ctrls3.perBankWrBursts::13           18949                       # Per bank write bursts
system.mem_ctrls3.perBankWrBursts::14           19033                       # Per bank write bursts
system.mem_ctrls3.perBankWrBursts::15           18942                       # Per bank write bursts
system.mem_ctrls3.numRdRetry                     1160                       # Number of times read queue was full causing retry
system.mem_ctrls3.numWrRetry                     2851                       # Number of times write queue was full causing retry
system.mem_ctrls3.totGap                 127680038000                       # Total gap between requests
system.mem_ctrls3.readPktSize::0                    0                       # Read request sizes (log2)
system.mem_ctrls3.readPktSize::1                    0                       # Read request sizes (log2)
system.mem_ctrls3.readPktSize::2                    0                       # Read request sizes (log2)
system.mem_ctrls3.readPktSize::3                    0                       # Read request sizes (log2)
system.mem_ctrls3.readPktSize::4                    0                       # Read request sizes (log2)
system.mem_ctrls3.readPktSize::5                    0                       # Read request sizes (log2)
system.mem_ctrls3.readPktSize::6               675608                       # Read request sizes (log2)
system.mem_ctrls3.writePktSize::0                   0                       # Write request sizes (log2)
system.mem_ctrls3.writePktSize::1                   0                       # Write request sizes (log2)
system.mem_ctrls3.writePktSize::2                   0                       # Write request sizes (log2)
system.mem_ctrls3.writePktSize::3                   0                       # Write request sizes (log2)
system.mem_ctrls3.writePktSize::4                   0                       # Write request sizes (log2)
system.mem_ctrls3.writePktSize::5                   0                       # Write request sizes (log2)
system.mem_ctrls3.writePktSize::6              305501                       # Write request sizes (log2)
system.mem_ctrls3.rdQLenPdf::0                 248892                       # What read queue length does an incoming req see
system.mem_ctrls3.rdQLenPdf::1                  98975                       # What read queue length does an incoming req see
system.mem_ctrls3.rdQLenPdf::2                  81902                       # What read queue length does an incoming req see
system.mem_ctrls3.rdQLenPdf::3                  63586                       # What read queue length does an incoming req see
system.mem_ctrls3.rdQLenPdf::4                  45727                       # What read queue length does an incoming req see
system.mem_ctrls3.rdQLenPdf::5                  33829                       # What read queue length does an incoming req see
system.mem_ctrls3.rdQLenPdf::6                  24560                       # What read queue length does an incoming req see
system.mem_ctrls3.rdQLenPdf::7                  17746                       # What read queue length does an incoming req see
system.mem_ctrls3.rdQLenPdf::8                  13046                       # What read queue length does an incoming req see
system.mem_ctrls3.rdQLenPdf::9                   9803                       # What read queue length does an incoming req see
system.mem_ctrls3.rdQLenPdf::10                  7430                       # What read queue length does an incoming req see
[...]
system.ruby.L2Cache_Controller.MT_MB.L1_GETS::total         3448                      
system.ruby.L2Cache_Controller.MT_MB.L1_PUTX |           1      4.55%      4.55% |           0      0.00%      4.55% |           0      0.00%      4.55% |           0      0.00%      4.55% |           1      4.55%      9.09% |           0      0.00%      9.09% |           0      0.00%      9.09% |           0      0.00%      9.09% |           0      0.00%      9.09% |           1      4.55%     13.64% |           1      4.55%     18.18% |           1      4.55%     22.73% |           1      4.55%     27.27% |           1      4.55%     31.82% |           3     13.64%     45.45% |           1      4.55%     50.00% |           0      0.00%     50.00% |           1      4.55%     54.55% |           0      0.00%     54.55% |           0      0.00%     54.55% |           1      4.55%     59.09% |           1      4.55%     63.64% |           4     18.18%     81.82% |           0      0.00%     81.82% |           0      0.00%     81.82% |           0      0.00%     81.82% |           0      0.00%     81.82% |           0      0.00%     81.82% |           0      0.00%     81.82% |           1      4.55%     86.36% |           1      4.55%     90.91% |           2      9.09%    100.00%
system.ruby.L2Cache_Controller.MT_MB.L1_PUTX::total           22                      
system.ruby.L2Cache_Controller.MT_MB.L1_PUTX_old |           1     33.33%     33.33% |           0      0.00%     33.33% |           0      0.00%     33.33% |           0      0.00%     33.33% |           0      0.00%     33.33% |           0      0.00%     33.33% |           1     33.33%     66.67% |           0      0.00%     66.67% |           0      0.00%     66.67% |           0      0.00%     66.67% |           0      0.00%     66.67% |           0      0.00%     66.67% |           0      0.00%     66.67% |           0      0.00%     66.67% |           0      0.00%     66.67% |           0      0.00%     66.67% |           1     33.33%    100.00% |           0      0.00%    100.00% |           0      0.00%    100.00% |           0      0.00%    100.00% |           0      0.00%    100.00% |           0      0.00%    100.00% |           0      0.00%    100.00% |           0      0.00%    100.00% |           0      0.00%    100.00% |           0      0.00%    100.00% |           0      0.00%    100.00% |           0      0.00%    100.00% |           0      0.00%    100.00% |           0      0.00%    100.00% |           0      0.00%    100.00% |           0      0.00%    100.00%
system.ruby.L2Cache_Controller.MT_MB.L1_PUTX_old::total            3                      
system.ruby.L2Cache_Controller.MT_MB.Exclusive_Unblock |      217128      5.22%      5.22% |      127167      3.06%      8.28% |      126050      3.03%     11.31% |      128276      3.09%     14.40% |      126436      3.04%     17.44% |      125609      3.02%     20.46% |      125710      3.02%     23.49% |      124978      3.01%     26.49% |      125359      3.02%     29.51% |      126001      3.03%     32.54% |      128047      3.08%     35.62% |      126950      3.05%     38.67% |      125840      3.03%     41.70% |      126092      3.03%     44.73% |      124720      3.00%     47.73% |      124648      3.00%     50.73% |      125610      3.02%     53.75% |      125365      3.02%     56.77% |      125723      3.02%     59.79% |      125926      3.03%     62.82% |      126170      3.04%     65.86% |      140550      3.38%     69.24% |      134153      3.23%     72.47% |      124858      3.00%     75.47% |      125400      3.02%     78.49% |      125554      3.02%     81.51% |      125292      3.01%     84.52% |      125213      3.01%     87.53% |      126702      3.05%     90.58% |      125741      3.02%     93.60% |      129315      3.11%     96.71% |      136582      3.29%    100.00%
system.ruby.L2Cache_Controller.MT_MB.Exclusive_Unblock::total      4157165                      
system.ruby.L2Cache_Controller.MT_IIB.L1_GETS |           0      0.00%      0.00% |           0      0.00%      0.00% |           0      0.00%      0.00% |           0      0.00%      0.00% |           0      0.00%      0.00% |           0      0.00%      0.00% |           1     50.00%     50.00% |           0      0.00%     50.00% |           0      0.00%     50.00% |           0      0.00%     50.00% |           0      0.00%     50.00% |           0      0.00%     50.00% |           0      0.00%     50.00% |           0      0.00%     50.00% |           0      0.00%     50.00% |           0      0.00%     50.00% |           0      0.00%     50.00% |           0      0.00%     50.00% |           0      0.00%     50.00% |           0      0.00%     50.00% |           0      0.00%     50.00% |           0      0.00%     50.00% |           0      0.00%     50.00% |           0      0.00%     50.00% |           0      0.00%     50.00% |           0      0.00%     50.00% |           0      0.00%     50.00% |           0      0.00%     50.00% |           1     50.00%    100.00% |           0      0.00%    100.00% |           0      0.00%    100.00% |           0      0.00%    100.00%
system.ruby.L2Cache_Controller.MT_IIB.L1_GETS::total            2                      
system.ruby.L2Cache_Controller.MT_IIB.L1_PUTX |           1      1.27%      1.27% |           4      5.06%      6.33% |           3      3.80%     10.13% |           0      0.00%     10.13% |           1      1.27%     11.39% |           2      2.53%     13.92% |           1      1.27%     15.19% |           2      2.53%     17.72% |           1      1.27%     18.99% |           4      5.06%     24.05% |           2      2.53%     26.58% |           4      5.06%     31.65% |           5      6.33%     37.97% |           2      2.53%     40.51% |           1      1.27%     41.77% |           4      5.06%     46.84% |           2      2.53%     49.37% |           4      5.06%     54.43% |           0      0.00%     54.43% |           4      5.06%     59.49% |           2      2.53%     62.03% |           1      1.27%     63.29% |           2      2.53%     65.82% |           6      7.59%     73.42% |           6      7.59%     81.01% |           3      3.80%     84.81% |           3      3.80%     88.61% |           2      2.53%     91.14% |           2      2.53%     93.67% |           1      1.27%     94.94% |           1      1.27%     96.20% |           3      3.80%    100.00%
system.ruby.L2Cache_Controller.MT_IIB.L1_PUTX::total           79                      
system.ruby.L2Cache_Controller.MT_IIB.WB_Data |           0      0.00%      0.00% |           0      0.00%      0.00% |           0      0.00%      0.00% |           0      0.00%      0.00% |           0      0.00%      0.00% |           0      0.00%      0.00% |           0      0.00%      0.00% |           0      0.00%      0.00% |           0      0.00%      0.00% |           0      0.00%      0.00% |           0      0.00%      0.00% |           0      0.00%      0.00% |           0      0.00%      0.00% |           0      0.00%      0.00% |           0      0.00%      0.00% |           0      0.00%      0.00% |           0      0.00%      0.00% |           0      0.00%      0.00% |           0      0.00%      0.00% |           0      0.00%      0.00% |           0      0.00%      0.00% |           2     40.00%     40.00% |           0      0.00%     40.00% |           0      0.00%     40.00% |           0      0.00%     40.00% |           0      0.00%     40.00% |           1     20.00%     60.00% |           0      0.00%     60.00% |           0      0.00%     60.00% |           0      0.00%     60.00% |           0      0.00%     60.00% |           2     40.00%    100.00%
system.ruby.L2Cache_Controller.MT_IIB.WB_Data::total            5                      
system.ruby.L2Cache_Controller.MT_IIB.WB_Data_clean |         980      2.63%      2.63% |        1282      3.44%      6.07% |        1273      3.42%      9.49% |        1167      3.13%     12.62% |        1235      3.32%     15.94% |        1208      3.24%     19.18% |        1234      3.31%     22.50% |        1220      3.28%     25.77% |        1235      3.32%     29.09% |        1187      3.19%     32.28% |        1263      3.39%     35.67% |        1161      3.12%     38.78% |        1171      3.14%     41.93% |        1158      3.11%     45.04% |        1244      3.34%     48.38% |        1171      3.14%     51.52% |        1187      3.19%     54.71% |        1123      3.02%     57.72% |        1137      3.05%     60.78% |        1127      3.03%     63.80% |        1148      3.08%     66.88% |        1058      2.84%     69.72% |        1163      3.12%     72.85% |        1038      2.79%     75.63% |        1078      2.89%     78.53% |        1136      3.05%     81.58% |        1108      2.97%     84.55% |        1101      2.96%     87.51% |        1170      3.14%     90.65% |        1133      3.04%     93.69% |        1174      3.15%     96.85% |        1175      3.15%    100.00%
system.ruby.L2Cache_Controller.MT_IIB.WB_Data_clean::total        37245                      
system.ruby.L2Cache_Controller.MT_IIB.Unblock |          10      1.11%      1.11% |          16      1.77%      2.88% |          40      4.43%      7.32% |          29      3.22%     10.53% |          13      1.44%     11.97% |          25      2.77%     14.75% |          48      5.32%     20.07% |          46      5.10%     25.17% |          63      6.98%     32.15% |          51      5.65%     37.80% |          34      3.77%     41.57% |          27      2.99%     44.57% |          25      2.77%     47.34% |          44      4.88%     52.22% |          26      2.88%     55.10% |          20      2.22%     57.32% |          30      3.33%     60.64% |          34      3.77%     64.41% |          17      1.88%     66.30% |          24      2.66%     68.96% |          47      5.21%     74.17% |          24      2.66%     76.83% |          23      2.55%     79.38% |          15      1.66%     81.04% |          20      2.22%     83.26% |          21      2.33%     85.59% |          15      1.66%     87.25% |          20      2.22%     89.47% |          28      3.10%     92.57% |          25      2.77%     95.34% |          24      2.66%     98.00% |          18      2.00%    100.00%
system.ruby.L2Cache_Controller.MT_IIB.Unblock::total          902                      
system.ruby.L2Cache_Controller.MT_IB.WB_Data_clean |          10      1.11%      1.11% |          16      1.77%      2.88% |          40      4.43%      7.32% |          29      3.22%     10.53% |          13      1.44%     11.97% |          25      2.77%     14.75% |          48      5.32%     20.07% |          46      5.10%     25.17% |          63      6.98%     32.15% |          51      5.65%     37.80% |          34      3.77%     41.57% |          27      2.99%     44.57% |          25      2.77%     47.34% |          44      4.88%     52.22% |          26      2.88%     55.10% |          20      2.22%     57.32% |          30      3.33%     60.64% |          34      3.77%     64.41% |          17      1.88%     66.30% |          24      2.66%     68.96% |          47      5.21%     74.17% |          24      2.66%     76.83% |          23      2.55%     79.38% |          15      1.66%     81.04% |          20      2.22%     83.26% |          21      2.33%     85.59% |          15      1.66%     87.25% |          20      2.22%     89.47% |          28      3.10%     92.57% |          25      2.77%     95.34% |          24      2.66%     98.00% |          18      2.00%    100.00%
system.ruby.L2Cache_Controller.MT_IB.WB_Data_clean::total          902                      
system.ruby.L2Cache_Controller.MT_SB.L1_PUTX |           0      0.00%      0.00% |           0      0.00%      0.00% |           0      0.00%      0.00% |           0      0.00%      0.00% |           0      0.00%      0.00% |           0      0.00%      0.00% |           0      0.00%      0.00% |           0      0.00%      0.00% |           0      0.00%      0.00% |           0      0.00%      0.00% |           0      0.00%      0.00% |           0      0.00%      0.00% |           1     16.67%     16.67% |           0      0.00%     16.67% |           0      0.00%     16.67% |           0      0.00%     16.67% |           0      0.00%     16.67% |           0      0.00%     16.67% |           0      0.00%     16.67% |           0      0.00%     16.67% |           2     33.33%     50.00% |           1     16.67%     66.67% |           1     16.67%     83.33% |           0      0.00%     83.33% |           0      0.00%     83.33% |           0      0.00%     83.33% |           0      0.00%     83.33% |           0      0.00%     83.33% |           1     16.67%    100.00% |           0      0.00%    100.00% |           0      0.00%    100.00% |           0      0.00%    100.00%
system.ruby.L2Cache_Controller.MT_SB.L1_PUTX::total            6                      
system.ruby.L2Cache_Controller.MT_SB.Unblock |         980      2.63%      2.63% |        1282      3.44%      6.07% |        1273      3.42%      9.49% |        1167      3.13%     12.62% |        1235      3.32%     15.94% |        1208      3.24%     19.18% |        1234      3.31%     22.49% |        1220      3.28%     25.77% |        1235      3.32%     29.08% |        1187      3.19%     32.27% |        1263      3.39%     35.66% |        1161      3.12%     38.78% |        1171      3.14%     41.92% |        1158      3.11%     45.03% |        1244      3.34%     48.37% |        1171      3.14%     51.51% |        1187      3.19%     54.70% |        1123      3.01%     57.72% |        1137      3.05%     60.77% |        1127      3.03%     63.79% |        1148      3.08%     66.88% |        1060      2.85%     69.72% |        1163      3.12%     72.84% |        1038      2.79%     75.63% |        1078      2.89%     78.52% |        1136      3.05%     81.57% |        1109      2.98%     84.55% |        1101      2.96%     87.51% |        1170      3.14%     90.65% |        1133      3.04%     93.69% |        1174      3.15%     96.84% |        1177      3.16%    100.00%
system.ruby.L2Cache_Controller.MT_SB.Unblock::total        37250                      
system.ruby.SimicsNetworkPortInterface_Controller.MessageSend |     1559218     24.92%     24.92% |     3128183     50.00%     74.92% |      199707      3.19%     78.11% |      200201      3.20%     81.31% |      191460      3.06%     84.37% |      196318      3.14%     87.51% |      196353      3.14%     90.65% |      192452      3.08%     93.73% |      195805      3.13%     96.86% |      196669      3.14%    100.00% |           0      0.00%    100.00% |           0      0.00%    100.00% |           0      0.00%    100.00% |           0      0.00%    100.00% |           0      0.00%    100.00% |           0      0.00%    100.00% |           0      0.00%    100.00% |           0      0.00%    100.00% |           0      0.00%    100.00% |           0      0.00%    100.00% |           0      0.00%    100.00% |           0      0.00%    100.00% |           0      0.00%    100.00% |           0      0.00%    100.00% |           0      0.00%    100.00% |           0      0.00%    100.00% |           0      0.00%    100.00% |           0      0.00%    100.00% |           0      0.00%    100.00% |           0      0.00%    100.00% |           0      0.00%    100.00% |           0      0.00%    100.00%
system.ruby.SimicsNetworkPortInterface_Controller.MessageSend::total      6256366                      
system.ruby.SimicsNetworkPortInterface_Controller.MessageRecv |     1559218     24.92%     24.92% |     3128183     50.00%     74.92% |      199707      3.19%     78.11% |      200201      3.20%     81.31% |      191460      3.06%     84.37% |      196318      3.14%     87.51% |      196353      3.14%     90.65% |      192452      3.08%     93.73% |      195805      3.13%     96.86% |      196669      3.14%    100.00% |           0      0.00%    100.00% |           0      0.00%    100.00% |           0      0.00%    100.00% |           0      0.00%    100.00% |           0      0.00%    100.00% |           0      0.00%    100.00% |           0      0.00%    100.00% |           0      0.00%    100.00% |           0      0.00%    100.00% |           0      0.00%    100.00% |           0      0.00%    100.00% |           0      0.00%    100.00% |           0      0.00%    100.00% |           0      0.00%    100.00% |           0      0.00%    100.00% |           0      0.00%    100.00% |           0      0.00%    100.00% |           0      0.00%    100.00% |           0      0.00%    100.00% |           0      0.00%    100.00% |           0      0.00%    100.00% |           0      0.00%    100.00%
system.ruby.SimicsNetworkPortInterface_Controller.MessageRecv::total      6256366                      
system.ruby.SimicsNetworkPortInterface_Controller.A.MessageSend |     1559218     24.92%     24.92% |     3128183     50.00%     74.92% |      199707      3.19%     78.11% |      200201      3.20%     81.31% |      191460      3.06%     84.37% |      196318      3.14%     87.51% |      196353      3.14%     90.65% |      192452      3.08%     93.73% |      195805      3.13%     96.86% |      196669      3.14%    100.00% |           0      0.00%    100.00% |           0      0.00%    100.00% |           0      0.00%    100.00% |           0      0.00%    100.00% |           0      0.00%    100.00% |           0      0.00%    100.00% |           0      0.00%    100.00% |           0      0.00%    100.00% |           0      0.00%    100.00% |           0      0.00%    100.00% |           0      0.00%    100.00% |           0      0.00%    100.00% |           0      0.00%    100.00% |           0      0.00%    100.00% |           0      0.00%    100.00% |           0      0.00%    100.00% |           0      0.00%    100.00% |           0      0.00%    100.00% |           0      0.00%    100.00% |           0      0.00%    100.00% |           0      0.00%    100.00% |           0      0.00%    100.00%
system.ruby.SimicsNetworkPortInterface_Controller.A.MessageSend::total      6256366                      
system.ruby.SimicsNetworkPortInterface_Controller.A.MessageRecv |     1559218     24.92%     24.92% |     3128183     50.00%     74.92% |      199707      3.19%     78.11% |      200201      3.20%     81.31% |      191460      3.06%     84.37% |      196318      3.14%     87.51% |      196353      3.14%     90.65% |      192452      3.08%     93.73% |      195805      3.13%     96.86% |      196669      3.14%    100.00% |           0      0.00%    100.00% |           0      0.00%    100.00% |           0      0.00%    100.00% |           0      0.00%    100.00% |           0      0.00%    100.00% |           0      0.00%    100.00% |           0      0.00%    100.00% |           0      0.00%    100.00% |           0      0.00%    100.00% |           0      0.00%    100.00% |           0      0.00%    100.00% |           0      0.00%    100.00% |           0      0.00%    100.00% |           0      0.00%    100.00% |           0      0.00%    100.00% |           0      0.00%    100.00% |           0      0.00%    100.00% |           0      0.00%    100.00% |           0      0.00%    100.00% |           0      0.00%    100.00% |           0      0.00%    100.00% |           0      0.00%    100.00%
system.ruby.SimicsNetworkPortInterface_Controller.A.MessageRecv::total      6256366                      
system.switch_cpus.kern.inst.arm                    0                       # number of arm instructions executed
system.switch_cpus.kern.inst.quiesce                0                       # number of quiesce instructions executed

---------- End Simulation Statistics   ----------
