
---------- Begin Simulation Statistics ----------
sim_seconds                                  0.127535                       # Number of seconds simulated
sim_ticks                                127535188500                       # Number of ticks simulated
final_tick                               5303703267000                       # Number of ticks from beginning of simulation (restored from checkpoints and never reset)
sim_freq                                 1000000000000                       # Frequency of simulated ticks
host_inst_rate                                  45834                       # Simulator instruction rate (inst/s)
host_op_rate                                    79565                       # Simulator op (including micro ops) rate (op/s)
host_tick_rate                               90924799                       # Simulator tick rate (ticks/s)
host_mem_usage                                9459456                       # Number of bytes of host memory used
host_seconds                                  1402.64                       # Real time elapsed on the host
sim_insts                                    64289286                       # Number of instructions simulated
sim_ops                                     111601658                       # Number of ops (including micro ops) simulated
system.voltage_domain.voltage                       1                       # Voltage in Volts
system.clk_domain.clock                           500                       # Clock period in ticks
system.mem_ctrls0.bytes_read::ruby.dir_cntrl0     41477376                       # Number of bytes read from this memory
system.mem_ctrls0.bytes_read::total          41477376                       # Number of bytes read from this memory
system.mem_ctrls0.bytes_written::ruby.dir_cntrl0     19550912                       # Number of bytes written to this memory
system.mem_ctrls0.bytes_written::total       19550912                       # Number of bytes written to this memory
system.mem_ctrls0.num_reads::ruby.dir_cntrl0       648084                       # Number of read requests responded to by this memory
system.mem_ctrls0.num_reads::total             648084                       # Number of read requests responded to by this memory
system.mem_ctrls0.num_writes::ruby.dir_cntrl0       305483                       # Number of write requests responded to by this memory
system.mem_ctrls0.num_writes::total            305483                       # Number of write requests responded to by this memory
system.mem_ctrls0.bw_read::ruby.dir_cntrl0    325222995                       # Total read bandwidth from this memory (bytes/s)
system.mem_ctrls0.bw_read::total            325222995                       # Total read bandwidth from this memory (bytes/s)
system.mem_ctrls0.bw_write::ruby.dir_cntrl0    153298178                       # Write bandwidth from this memory (bytes/s)
system.mem_ctrls0.bw_write::total           153298178                       # Write bandwidth from this memory (bytes/s)
system.mem_ctrls0.bw_total::ruby.dir_cntrl0    478521173                       # Total bandwidth to/from this memory (bytes/s)
system.mem_ctrls0.bw_total::total           478521173                       # Total bandwidth to/from this memory (bytes/s)
system.mem_ctrls0.readReqs                     648084                       # Number of read requests accepted
system.mem_ctrls0.writeReqs                    305483                       # Number of write requests accepted
system.mem_ctrls0.readBursts                   648084                       # Number of DRAM read bursts, including those serviced by the write queue
system.mem_ctrls0.writeBursts                  305483                       # Number of DRAM write bursts, including those merged in the write queue
system.mem_ctrls0.bytesReadDRAM              41463680                       # Total number of bytes read from DRAM
system.mem_ctrls0.bytesReadWrQ                  13696                       # Total number of bytes read from write queue
system.mem_ctrls0.bytesWritten               19550848                       # Total number of bytes written to DRAM
system.mem_ctrls0.bytesReadSys               41477376                       # Total read bytes from the system interface side
system.mem_ctrls0.bytesWrittenSys            19550912                       # Total written bytes from the system interface side
system.mem_ctrls0.servicedByWrQ                   214                       # Number of DRAM read bursts serviced by the write queue
system.mem_ctrls0.mergedWrBursts                    0                       # Number of DRAM write bursts merged with an existing one
system.mem_ctrls0.neitherReadNorWriteReqs            0                       # Number of requests that are neither read nor write
system.mem_ctrls0.perBankRdBursts::0            40537                       # Per bank write bursts
system.mem_ctrls0.perBankRdBursts::1            40625                       # Per bank write bursts
system.mem_ctrls0.perBankRdBursts::2            40293                       # Per bank write bursts
system.mem_ctrls0.perBankRdBursts::3            40700                       # Per bank write bursts
system.mem_ctrls0.perBankRdBursts::4            40175                       # Per bank write bursts
system.mem_ctrls0.perBankRdBursts::5            40342                       # Per bank write bursts
system.mem_ctrls0.perBankRdBursts::6            41353                       # Per bank write bursts
system.mem_ctrls0.perBankRdBursts::7            40860                       # Per bank write bursts
system.mem_ctrls0.perBankRdBursts::8            40124                       # Per bank write bursts
system.mem_ctrls0.perBankRdBursts::9            40280                       # Per bank write bursts
system.mem_ctrls0.perBankRdBursts::10           40080                       # Per bank write bursts
system.mem_ctrls0.perBankRdBursts::11           40814                       # Per bank write bursts
system.mem_ctrls0.perBankRdBursts::12           39877                       # Per bank write bursts
system.mem_ctrls0.perBankRdBursts::13           40077                       # Per bank write bursts
system.mem_ctrls0.perBankRdBursts::14           40953                       # Per bank write bursts
system.mem_ctrls0.perBankRdBursts::15           40780                       # Per bank write bursts
system.mem_ctrls0.perBankWrBursts::0            19098                       # Per bank write bursts
system.mem_ctrls0.perBankWrBursts::1            19058                       # Per bank write bursts
system.mem_ctrls0.perBankWrBursts::2            19087                       # Per bank write bursts
system.mem_ctrls0.perBankWrBursts::3            19162                       # Per bank write bursts
system.mem_ctrls0.perBankWrBursts::4            19034                       # Per bank write bursts
system.mem_ctrls0.perBankWrBursts::5            19134                       # Per bank write bursts
system.mem_ctrls0.perBankWrBursts::6            19381                       # Per bank write bursts
system.mem_ctrls0.perBankWrBursts::7            19279                       # Per bank write bursts
system.mem_ctrls0.perBankWrBursts::8            19007                       # Per bank write bursts
system.mem_ctrls0.perBankWrBursts::9            19054                       # Per bank write bursts
system.mem_ctrls0.perBankWrBursts::10           18962                       # Per bank write bursts
system.mem_ctrls0.perBankWrBursts::11           19074                       # Per bank write bursts
system.mem_ctrls0.perBankWrBursts::12           18911                       # Per bank write bursts
system.mem_ctrls0.perBankWrBursts::13           18944                       # Per bank write bursts
system.mem_ctrls0.perBankWrBursts::14           19254                       # Per bank write bursts
system.mem_ctrls0.perBankWrBursts::15           19043                       # Per bank write bursts
system.mem_ctrls0.numRdRetry                      978                       # Number of times read queue was full causing retry
system.mem_ctrls0.numWrRetry                     5262                       # Number of times write queue was full causing retry
system.mem_ctrls0.totGap                 127534659000                       # Total gap between requests
system.mem_ctrls0.readPktSize::0                    0                       # Read request sizes (log2)
system.mem_ctrls0.readPktSize::1                    0                       # Read request sizes (log2)
system.mem_ctrls0.readPktSize::2                    0                       # Read request sizes (log2)
system.mem_ctrls0.readPktSize::3                    0                       # Read request sizes (log2)
system.mem_ctrls0.readPktSize::4                    0                       # Read request sizes (log2)
system.mem_ctrls0.readPktSize::5                    0                       # Read request sizes (log2)
system.mem_ctrls0.readPktSize::6               648084                       # Read request sizes (log2)
system.mem_ctrls0.writePktSize::0                   0                       # Write request sizes (log2)
system.mem_ctrls0.writePktSize::1                   0                       # Write request sizes (log2)
system.mem_ctrls0.writePktSize::2                   0                       # Write request sizes (log2)
system.mem_ctrls0.writePktSize::3                   0                       # Write request sizes (log2)
system.mem_ctrls0.writePktSize::4                   0                       # Write request sizes (log2)
system.mem_ctrls0.writePktSize::5                   0                       # Write request sizes (log2)
system.mem_ctrls0.writePktSize::6              305483                       # Write request sizes (log2)
system.mem_ctrls0.rdQLenPdf::0                 246191                       # What read queue length does an incoming req see
system.mem_ctrls0.rdQLenPdf::1                  84291                       # What read queue length does an incoming req see
system.mem_ctrls0.rdQLenPdf::2                  68993                       # What read queue length does an incoming req see
system.mem_ctrls0.rdQLenPdf::3                  57868                       # What read queue length does an incoming req see
system.mem_ctrls0.rdQLenPdf::4                  46203                       # What read queue length does an incoming req see
system.mem_ctrls0.rdQLenPdf::5                  35716                       # What read queue length does an incoming req see
system.mem_ctrls0.rdQLenPdf::6                  27266                       # What read queue length does an incoming req see
system.mem_ctrls0.rdQLenPdf::7                  19939                       # What read queue length does an incoming req see
system.mem_ctrls0.rdQLenPdf::8                  13786                       # What read queue length does an incoming req see
system.mem_ctrls0.rdQLenPdf::9                  10256                       # What read queue length does an incoming req see
system.mem_ctrls0.rdQLenPdf::10                  7779                       # What read queue length does an incoming req see
system.mem_ctrls0.rdQLenPdf::11                  5883                       # What read queue length does an incoming req see
system.mem_ctrls0.rdQLenPdf::12                  4512                       # What read queue length does an incoming req see
system.mem_ctrls0.rdQLenPdf::13                  3451                       # What read queue length does an incoming req see
system.mem_ctrls0.rdQLenPdf::14                  2735                       # What read queue length does an incoming req see
system.mem_ctrls0.rdQLenPdf::15                  2215                       # What read queue length does an incoming req see
system.mem_ctrls0.rdQLenPdf::16                  1720                       # What read queue length does an incoming req see
system.mem_ctrls0.rdQLenPdf::17                  1409                       # What read queue length does an incoming req see
system.mem_ctrls0.rdQLenPdf::18                  1165                       # What read queue length does an incoming req see
system.mem_ctrls0.rdQLenPdf::19                  1009                       # What read queue length does an incoming req see
system.mem_ctrls0.rdQLenPdf::20                   801                       # What read queue length does an incoming req see
system.mem_ctrls0.rdQLenPdf::21                   655                       # What read queue length does an incoming req see
system.mem_ctrls0.rdQLenPdf::22                   543                       # What read queue length does an incoming req see
system.mem_ctrls0.rdQLenPdf::23                   449                       # What read queue length does an incoming req see
system.mem_ctrls0.rdQLenPdf::24                   382                       # What read queue length does an incoming req see
system.mem_ctrls0.rdQLenPdf::25                   314                       # What read queue length does an incoming req see
system.mem_ctrls0.rdQLenPdf::26                   289                       # What read queue length does an incoming req see
system.mem_ctrls0.rdQLenPdf::27                   264                       # What read queue length does an incoming req see
system.mem_ctrls0.rdQLenPdf::28                   222                       # What read queue length does an incoming req see
system.mem_ctrls0.rdQLenPdf::29                   203                       # What read queue length does an incoming req see
system.mem_ctrls0.rdQLenPdf::30                   192                       # What read queue length does an incoming req see
system.mem_ctrls0.rdQLenPdf::31                  1169                       # What read queue length does an incoming req see
system.mem_ctrls0.wrQLenPdf::0                  49866                       # What write queue length does an incoming req see
system.mem_ctrls0.wrQLenPdf::1                  54370                       # What write queue length does an incoming req see
system.mem_ctrls0.wrQLenPdf::2                  56579                       # What write queue length does an incoming req see
system.mem_ctrls0.wrQLenPdf::3                  58295                       # What write queue length does an incoming req see
system.mem_ctrls0.wrQLenPdf::4                  59137                       # What write queue length does an incoming req see
system.mem_ctrls0.wrQLenPdf::5                  10537                       # What write queue length does an incoming req see
system.mem_ctrls0.wrQLenPdf::6                   6961                       # What write queue length does an incoming req see
system.mem_ctrls0.wrQLenPdf::7                   9738                       # What write queue length does an incoming req see
system.mem_ctrls0.bytesPerActivate::samples       285241                       # Bytes accessed per row activation
system.mem_ctrls0.bytesPerActivate::mean   213.902265                       # Bytes accessed per row activation
system.mem_ctrls0.bytesPerActivate::gmean   164.283056                       # Bytes accessed per row activation
system.mem_ctrls0.bytesPerActivate::stdev   157.474162                       # Bytes accessed per row activation
system.mem_ctrls0.bytesPerActivate::0-127        83727     29.35%     29.35% # Bytes accessed per row activation
system.mem_ctrls0.bytesPerActivate::128-255        86879     30.46%     59.81% # Bytes accessed per row activation
system.mem_ctrls0.bytesPerActivate::256-383        72825     25.53%     85.34% # Bytes accessed per row activation
system.mem_ctrls0.bytesPerActivate::384-511        19678      6.90%     92.24% # Bytes accessed per row activation
system.mem_ctrls0.bytesPerActivate::512-639        16501      5.78%     98.03% # Bytes accessed per row activation
system.mem_ctrls0.bytesPerActivate::640-767         2592      0.91%     98.93% # Bytes accessed per row activation
system.mem_ctrls0.bytesPerActivate::768-895         1541      0.54%     99.47% # Bytes accessed per row activation
system.mem_ctrls0.bytesPerActivate::896-1023         1005      0.35%     99.83% # Bytes accessed per row activation
system.mem_ctrls0.bytesPerActivate::1024-1151          493      0.17%    100.00% # Bytes accessed per row activation
system.mem_ctrls0.bytesPerActivate::total       285241                       # Bytes accessed per row activation
system.mem_ctrls0.rdPerTurnAround::samples        50528                       # Reads before turning the bus around for writes
system.mem_ctrls0.rdPerTurnAround::mean     12.821980                       # Reads before turning the bus around for writes
system.mem_ctrls0.rdPerTurnAround::stdev    37.270014                       # Reads before turning the bus around for writes
system.mem_ctrls0.rdPerTurnAround::0-127        50142     99.24%     99.24% # Reads before turning the bus around for writes
system.mem_ctrls0.rdPerTurnAround::128-255          247      0.49%     99.72% # Reads before turning the bus around for writes
system.mem_ctrls0.rdPerTurnAround::256-383           59      0.12%     99.84% # Reads before turning the bus around for writes
system.mem_ctrls0.rdPerTurnAround::384-511           35      0.07%     99.91% # Reads before turning the bus around for writes
system.mem_ctrls0.rdPerTurnAround::512-639           16      0.03%     99.94% # Reads before turning the bus around for writes
system.mem_ctrls0.rdPerTurnAround::640-767            9      0.02%     99.96% # Reads before turning the bus around for writes
system.mem_ctrls0.rdPerTurnAround::768-895            9      0.02%     99.98% # Reads before turning the bus around for writes
system.mem_ctrls0.rdPerTurnAround::896-1023            5      0.01%     99.99% # Reads before turning the bus around for writes
system.mem_ctrls0.rdPerTurnAround::1024-1151            2      0.00%     99.99% # Reads before turning the bus around for writes
system.mem_ctrls0.rdPerTurnAround::1152-1279            1      0.00%     99.99% # Reads before turning the bus around for writes
system.mem_ctrls0.rdPerTurnAround::1280-1407            1      0.00%    100.00% # Reads before turning the bus around for writes
system.mem_ctrls0.rdPerTurnAround::1536-1663            1      0.00%    100.00% # Reads before turning the bus around for writes
system.mem_ctrls0.rdPerTurnAround::3968-4095            1      0.00%    100.00% # Reads before turning the bus around for writes
system.mem_ctrls0.rdPerTurnAround::total        50528                       # Reads before turning the bus around for writes
system.mem_ctrls0.wrPerTurnAround::samples        50528                       # Writes before turning the bus around for reads
system.mem_ctrls0.wrPerTurnAround::mean      6.045796                       # Writes before turning the bus around for reads
system.mem_ctrls0.wrPerTurnAround::gmean     5.771202                       # Writes before turning the bus around for reads
system.mem_ctrls0.wrPerTurnAround::stdev     2.256969                       # Writes before turning the bus around for reads
system.mem_ctrls0.wrPerTurnAround::4-7          42687     84.48%     84.48% # Writes before turning the bus around for reads
system.mem_ctrls0.wrPerTurnAround::8-11          5517     10.92%     95.40% # Writes before turning the bus around for reads
system.mem_ctrls0.wrPerTurnAround::12-15         1470      2.91%     98.31% # Writes before turning the bus around for reads
system.mem_ctrls0.wrPerTurnAround::16-19          854      1.69%    100.00% # Writes before turning the bus around for reads
system.mem_ctrls0.wrPerTurnAround::total        50528                       # Writes before turning the bus around for reads
system.mem_ctrls0.totQLat                 28712048789                       # Total ticks spent queuing
system.mem_ctrls0.totMemAccLat            40859611289                       # Total ticks spent from burst creation until serviced by the DRAM
system.mem_ctrls0.totBusLat                3239350000                       # Total ticks spent in databus transfers
system.mem_ctrls0.avgQLat                    44317.61                       # Average queueing delay per DRAM burst
system.mem_ctrls0.avgBusLat                   5000.00                       # Average bus latency per DRAM burst
system.mem_ctrls0.avgMemAccLat               63067.61                       # Average memory access latency per DRAM burst
system.mem_ctrls0.avgRdBW                      325.12                       # Average DRAM read bandwidth in MiByte/s
system.mem_ctrls0.avgWrBW                      153.30                       # Average achieved write bandwidth in MiByte/s
system.mem_ctrls0.avgRdBWSys                   325.22                       # Average system read bandwidth in MiByte/s
system.mem_ctrls0.avgWrBWSys                   153.30                       # Average system write bandwidth in MiByte/s
system.mem_ctrls0.peakBW                     12800.00                       # Theoretical peak bandwidth in MiByte/s
system.mem_ctrls0.busUtil                        3.74                       # Data bus utilization in percentage
system.mem_ctrls0.busUtilRead                    2.54                       # Data bus utilization in percentage for reads
system.mem_ctrls0.busUtilWrite                   1.20                       # Data bus utilization in percentage for writes
system.mem_ctrls0.avgRdQLen                      1.46                       # Average read queue length when enqueuing
system.mem_ctrls0.avgWrQLen                      3.04                       # Average write queue length when enqueuing
system.mem_ctrls0.readRowHits                  487592                       # Number of row buffer hits during reads
system.mem_ctrls0.writeRowHits                 180508                       # Number of row buffer hits during writes
system.mem_ctrls0.readRowHitRate                75.26                       # Row buffer hit rate for reads
system.mem_ctrls0.writeRowHitRate               59.09                       # Row buffer hit rate for writes
system.mem_ctrls0.avgGap                    133744.83                       # Average gap between requests
system.mem_ctrls0.pageHitRate                   70.08                       # Row buffer hit rate, read and write combined
system.mem_ctrls0.memoryStateTime::IDLE   20293568000                       # Time in different power states
system.mem_ctrls0.memoryStateTime::REF     4258540000                       # Time in different power states
system.mem_ctrls0.memoryStateTime::PRE_PDN            0                       # Time in different power states
system.mem_ctrls0.memoryStateTime::ACT   102979364000                       # Time in different power states
system.mem_ctrls0.memoryStateTime::ACT_PDN            0                       # Time in different power states
system.mem_ctrls0.actEnergy::0             1084361040                       # Energy for activate commands per rank (pJ)
system.mem_ctrls0.actEnergy::1             1072008000                       # Energy for activate commands per rank (pJ)
system.mem_ctrls0.preEnergy::0              591665250                       # Energy for precharge commands per rank (pJ)
system.mem_ctrls0.preEnergy::1              584925000                       # Energy for precharge commands per rank (pJ)
system.mem_ctrls0.readEnergy::0            2534040600                       # Energy for read commands per rank (pJ)
system.mem_ctrls0.readEnergy::1            2519166000                       # Energy for read commands per rank (pJ)
system.mem_ctrls0.writeEnergy::0            992930400                       # Energy for write commands per rank (pJ)
system.mem_ctrls0.writeEnergy::1            986560560                       # Energy for write commands per rank (pJ)
system.mem_ctrls0.refreshEnergy::0         8329704240                       # Energy for refresh commands per rank (pJ)
system.mem_ctrls0.refreshEnergy::1         8329704240                       # Energy for refresh commands per rank (pJ)
system.mem_ctrls0.actBackEnergy::0        54599718600                       # Energy for active background per rank (pJ)
system.mem_ctrls0.actBackEnergy::1        54119695095                       # Energy for active background per rank (pJ)
system.mem_ctrls0.preBackEnergy::0        28624259250                       # Energy for precharge background per rank (pJ)
system.mem_ctrls0.preBackEnergy::1        29045332500                       # Energy for precharge background per rank (pJ)
system.mem_ctrls0.totalEnergy::0          96756679380                       # Total energy per rank (pJ)
system.mem_ctrls0.totalEnergy::1          96657391395                       # Total energy per rank (pJ)
system.mem_ctrls0.averagePower::0          758.689971                       # Core power per rank (mW)
system.mem_ctrls0.averagePower::1          757.911432                       # Core power per rank (mW)
system.mem_ctrls1.bytes_read::ruby.dir_cntrl1     40912896                       # Number of bytes read from this memory
system.mem_ctrls1.bytes_read::total          40912896                       # Number of bytes read from this memory
system.mem_ctrls1.bytes_written::ruby.dir_cntrl1     18987136                       # Number of bytes written to this memory
system.mem_ctrls1.bytes_written::total       18987136                       # Number of bytes written to this memory
system.mem_ctrls1.num_reads::ruby.dir_cntrl1       639264                       # Number of read requests responded to by this memory
system.mem_ctrls1.num_reads::total             639264                       # Number of read requests responded to by this memory
system.mem_ctrls1.num_writes::ruby.dir_cntrl1       296674                       # Number of write requests responded to by this memory
system.mem_ctrls1.num_writes::total            296674                       # Number of write requests responded to by this memory
system.mem_ctrls1.bw_read::ruby.dir_cntrl1    320796923                       # Total read bandwidth from this memory (bytes/s)
system.mem_ctrls1.bw_read::total            320796923                       # Total read bandwidth from this memory (bytes/s)
system.mem_ctrls1.bw_write::ruby.dir_cntrl1    148877625                       # Write bandwidth from this memory (bytes/s)
system.mem_ctrls1.bw_write::total           148877625                       # Write bandwidth from this memory (bytes/s)
system.mem_ctrls1.bw_total::ruby.dir_cntrl1    469674548                       # Total bandwidth to/from this memory (bytes/s)
system.mem_ctrls1.bw_total::total           469674548                       # Total bandwidth to/from this memory (bytes/s)
system.mem_ctrls1.readReqs                     639264                       # Number of read requests accepted
system.mem_ctrls1.writeReqs                    296674                       # Number of write requests accepted
system.mem_ctrls1.readBursts                   639264                       # Number of DRAM read bursts, including those serviced by the write queue
system.mem_ctrls1.writeBursts                  296674                       # Number of DRAM write bursts, including those merged in the write queue
system.mem_ctrls1.bytesReadDRAM              40899200                       # Total number of bytes read from DRAM
system.mem_ctrls1.bytesReadWrQ                  13696                       # Total number of bytes read from write queue
system.mem_ctrls1.bytesWritten               18987136                       # Total number of bytes written to DRAM
system.mem_ctrls1.bytesReadSys               40912896                       # Total read bytes from the system interface side
system.mem_ctrls1.bytesWrittenSys            18987136                       # Total written bytes from the system interface side
system.mem_ctrls1.servicedByWrQ                   214                       # Number of DRAM read bursts serviced by the write queue
system.mem_ctrls1.mergedWrBursts                    0                       # Number of DRAM write bursts merged with an existing one
system.mem_ctrls1.neitherReadNorWriteReqs            0                       # Number of requests that are neither read nor write
system.mem_ctrls1.perBankRdBursts::0            40009                       # Per bank write bursts
system.mem_ctrls1.perBankRdBursts::1            40111                       # Per bank write bursts
system.mem_ctrls1.perBankRdBursts::2            39798                       # Per bank write bursts
system.mem_ctrls1.perBankRdBursts::3            40016                       # Per bank write bursts
system.mem_ctrls1.perBankRdBursts::4            39698                       # Per bank write bursts
system.mem_ctrls1.perBankRdBursts::5            39777                       # Per bank write bursts
system.mem_ctrls1.perBankRdBursts::6            41023                       # Per bank write bursts
system.mem_ctrls1.perBankRdBursts::7            40372                       # Per bank write bursts
system.mem_ctrls1.perBankRdBursts::8            39515                       # Per bank write bursts
system.mem_ctrls1.perBankRdBursts::9            39766                       # Per bank write bursts
system.mem_ctrls1.perBankRdBursts::10           39490                       # Per bank write bursts
system.mem_ctrls1.perBankRdBursts::11           40133                       # Per bank write bursts
system.mem_ctrls1.perBankRdBursts::12           39365                       # Per bank write bursts
system.mem_ctrls1.perBankRdBursts::13           39530                       # Per bank write bursts
system.mem_ctrls1.perBankRdBursts::14           40263                       # Per bank write bursts
system.mem_ctrls1.perBankRdBursts::15           40184                       # Per bank write bursts
system.mem_ctrls1.perBankWrBursts::0            18517                       # Per bank write bursts
system.mem_ctrls1.perBankWrBursts::1            18560                       # Per bank write bursts
system.mem_ctrls1.perBankWrBursts::2            18555                       # Per bank write bursts
system.mem_ctrls1.perBankWrBursts::3            18598                       # Per bank write bursts
system.mem_ctrls1.perBankWrBursts::4            18494                       # Per bank write bursts
system.mem_ctrls1.perBankWrBursts::5            18603                       # Per bank write bursts
system.mem_ctrls1.perBankWrBursts::6            18798                       # Per bank write bursts
system.mem_ctrls1.perBankWrBursts::7            18777                       # Per bank write bursts
system.mem_ctrls1.perBankWrBursts::8            18412                       # Per bank write bursts
system.mem_ctrls1.perBankWrBursts::9            18556                       # Per bank write bursts
system.mem_ctrls1.perBankWrBursts::10           18350                       # Per bank write bursts
system.mem_ctrls1.perBankWrBursts::11           18528                       # Per bank write bursts
system.mem_ctrls1.perBankWrBursts::12           18358                       # Per bank write bursts
system.mem_ctrls1.perBankWrBursts::13           18428                       # Per bank write bursts
system.mem_ctrls1.perBankWrBursts::14           18611                       # Per bank write bursts
system.mem_ctrls1.perBankWrBursts::15           18529                       # Per bank write bursts
system.mem_ctrls1.numRdRetry                      816                       # Number of times read queue was full causing retry
system.mem_ctrls1.numWrRetry                     5357                       # Number of times write queue was full causing retry
system.mem_ctrls1.totGap                 127534436500                       # Total gap between requests
system.mem_ctrls1.readPktSize::0                    0                       # Read request sizes (log2)
system.mem_ctrls1.readPktSize::1                    0                       # Read request sizes (log2)
system.mem_ctrls1.readPktSize::2                    0                       # Read request sizes (log2)
system.mem_ctrls1.readPktSize::3                    0                       # Read request sizes (log2)
system.mem_ctrls1.readPktSize::4                    0                       # Read request sizes (log2)
system.mem_ctrls1.readPktSize::5                    0                       # Read request sizes (log2)
system.mem_ctrls1.readPktSize::6               639264                       # Read request sizes (log2)
system.mem_ctrls1.writePktSize::0                   0                       # Write request sizes (log2)
system.mem_ctrls1.writePktSize::1                   0                       # Write request sizes (log2)
system.mem_ctrls1.writePktSize::2                   0                       # Write request sizes (log2)
system.mem_ctrls1.writePktSize::3                   0                       # Write request sizes (log2)
system.mem_ctrls1.writePktSize::4                   0                       # Write request sizes (log2)
system.mem_ctrls1.writePktSize::5                   0                       # Write request sizes (log2)
system.mem_ctrls1.writePktSize::6              296674                       # Write request sizes (log2)
system.mem_ctrls1.rdQLenPdf::0                 238728                       # What read queue length does an incoming req see
system.mem_ctrls1.rdQLenPdf::1                  82964                       # What read queue length does an incoming req see
system.mem_ctrls1.rdQLenPdf::2                  67930                       # What read queue length does an incoming req see
system.mem_ctrls1.rdQLenPdf::3                  57497                       # What read queue length does an incoming req see
system.mem_ctrls1.rdQLenPdf::4                  46144                       # What read queue length does an incoming req see
system.mem_ctrls1.rdQLenPdf::5                  36137                       # What read queue length does an incoming req see
system.mem_ctrls1.rdQLenPdf::6                  27491                       # What read queue length does an incoming req see
system.mem_ctrls1.rdQLenPdf::7                  20025                       # What read queue length does an incoming req see
system.mem_ctrls1.rdQLenPdf::8                  13717                       # What read queue length does an incoming req see
system.mem_ctrls1.rdQLenPdf::9                  10382                       # What read queue length does an incoming req see
system.mem_ctrls1.rdQLenPdf::10                  7943                       # What read queue length does an incoming req see
system.mem_ctrls1.rdQLenPdf::11                  6070                       # What read queue length does an incoming req see
system.mem_ctrls1.rdQLenPdf::12                  4636                       # What read queue length does an incoming req see
system.mem_ctrls1.rdQLenPdf::13                  3634                       # What read queue length does an incoming req see
system.mem_ctrls1.rdQLenPdf::14                  2884                       # What read queue length does an incoming req see
system.mem_ctrls1.rdQLenPdf::15                  2294                       # What read queue length does an incoming req see
system.mem_ctrls1.rdQLenPdf::16                  1758                       # What read queue length does an incoming req see
system.mem_ctrls1.rdQLenPdf::17                  1434                       # What read queue length does an incoming req see
system.mem_ctrls1.rdQLenPdf::18                  1196                       # What read queue length does an incoming req see
system.mem_ctrls1.rdQLenPdf::19                   969                       # What read queue length does an incoming req see
system.mem_ctrls1.rdQLenPdf::20                   823                       # What read queue length does an incoming req see
system.mem_ctrls1.rdQLenPdf::21                   686                       # What read queue length does an incoming req see
system.mem_ctrls1.rdQLenPdf::22                   554                       # What read queue length does an incoming req see
system.mem_ctrls1.rdQLenPdf::23                   430                       # What read queue length does an incoming req see
system.mem_ctrls1.rdQLenPdf::24                   394                       # What read queue length does an incoming req see
system.mem_ctrls1.rdQLenPdf::25                   338                       # What read queue length does an incoming req see
system.mem_ctrls1.rdQLenPdf::26                   264                       # What read queue length does an incoming req see
system.mem_ctrls1.rdQLenPdf::27                   227                       # What read queue length does an incoming req see
system.mem_ctrls1.rdQLenPdf::28                   190                       # What read queue length does an incoming req see
system.mem_ctrls1.rdQLenPdf::29                   177                       # What read queue length does an incoming req see
system.mem_ctrls1.rdQLenPdf::30                   164                       # What read queue length does an incoming req see
system.mem_ctrls1.rdQLenPdf::31                   970                       # What read queue length does an incoming req see
system.mem_ctrls1.wrQLenPdf::0                  48162                       # What write queue length does an incoming req see
system.mem_ctrls1.wrQLenPdf::1                  52611                       # What write queue length does an incoming req see
system.mem_ctrls1.wrQLenPdf::2                  54718                       # What write queue length does an incoming req see
system.mem_ctrls1.wrQLenPdf::3                  56407                       # What write queue length does an incoming req see
system.mem_ctrls1.wrQLenPdf::4                  57318                       # What write queue length does an incoming req see
system.mem_ctrls1.wrQLenPdf::5                  10723                       # What write queue length does an incoming req see
system.mem_ctrls1.wrQLenPdf::6                   6940                       # What write queue length does an incoming req see
system.mem_ctrls1.wrQLenPdf::7                   9795                       # What write queue length does an incoming req see
system.mem_ctrls1.bytesPerActivate::samples       271511                       # Bytes accessed per row activation
system.mem_ctrls1.bytesPerActivate::mean   220.564058                       # Bytes accessed per row activation
system.mem_ctrls1.bytesPerActivate::gmean   169.521938                       # Bytes accessed per row activation
system.mem_ctrls1.bytesPerActivate::stdev   159.964435                       # Bytes accessed per row activation
system.mem_ctrls1.bytesPerActivate::0-127        77118     28.40%     28.40% # Bytes accessed per row activation
system.mem_ctrls1.bytesPerActivate::128-255        79392     29.24%     57.64% # Bytes accessed per row activation
system.mem_ctrls1.bytesPerActivate::256-383        72654     26.76%     84.40% # Bytes accessed per row activation
system.mem_ctrls1.bytesPerActivate::384-511        19941      7.34%     91.75% # Bytes accessed per row activation
system.mem_ctrls1.bytesPerActivate::512-639        16637      6.13%     97.88% # Bytes accessed per row activation
system.mem_ctrls1.bytesPerActivate::640-767         2601      0.96%     98.83% # Bytes accessed per row activation
system.mem_ctrls1.bytesPerActivate::768-895         1617      0.60%     99.43% # Bytes accessed per row activation
system.mem_ctrls1.bytesPerActivate::896-1023         1072      0.39%     99.82% # Bytes accessed per row activation
system.mem_ctrls1.bytesPerActivate::1024-1151          479      0.18%    100.00% # Bytes accessed per row activation
system.mem_ctrls1.bytesPerActivate::total       271511                       # Bytes accessed per row activation
system.mem_ctrls1.rdPerTurnAround::samples        48817                       # Reads before turning the bus around for writes
system.mem_ctrls1.rdPerTurnAround::mean     13.090727                       # Reads before turning the bus around for writes
system.mem_ctrls1.rdPerTurnAround::stdev    36.520335                       # Reads before turning the bus around for writes
system.mem_ctrls1.rdPerTurnAround::0-127        48419     99.18%     99.18% # Reads before turning the bus around for writes
system.mem_ctrls1.rdPerTurnAround::128-255          256      0.52%     99.71% # Reads before turning the bus around for writes
system.mem_ctrls1.rdPerTurnAround::256-383           66      0.14%     99.84% # Reads before turning the bus around for writes
system.mem_ctrls1.rdPerTurnAround::384-511           32      0.07%     99.91% # Reads before turning the bus around for writes
system.mem_ctrls1.rdPerTurnAround::512-639           15      0.03%     99.94% # Reads before turning the bus around for writes
system.mem_ctrls1.rdPerTurnAround::640-767            7      0.01%     99.95% # Reads before turning the bus around for writes
system.mem_ctrls1.rdPerTurnAround::768-895            8      0.02%     99.97% # Reads before turning the bus around for writes
system.mem_ctrls1.rdPerTurnAround::896-1023            6      0.01%     99.98% # Reads before turning the bus around for writes
system.mem_ctrls1.rdPerTurnAround::1024-1151            3      0.01%     99.99% # Reads before turning the bus around for writes
system.mem_ctrls1.rdPerTurnAround::1152-1279            2      0.00%     99.99% # Reads before turning the bus around for writes
system.mem_ctrls1.rdPerTurnAround::1536-1663            1      0.00%    100.00% # Reads before turning the bus around for writes
system.mem_ctrls1.rdPerTurnAround::1664-1791            1      0.00%    100.00% # Reads before turning the bus around for writes
system.mem_ctrls1.rdPerTurnAround::2816-2943            1      0.00%    100.00% # Reads before turning the bus around for writes
system.mem_ctrls1.rdPerTurnAround::total        48817                       # Reads before turning the bus around for writes
system.mem_ctrls1.wrPerTurnAround::samples        48817                       # Writes before turning the bus around for reads
system.mem_ctrls1.wrPerTurnAround::mean      6.077268                       # Writes before turning the bus around for reads
system.mem_ctrls1.wrPerTurnAround::gmean     5.793887                       # Writes before turning the bus around for reads
system.mem_ctrls1.wrPerTurnAround::stdev     2.295471                       # Writes before turning the bus around for reads
system.mem_ctrls1.wrPerTurnAround::4-7          41014     84.02%     84.02% # Writes before turning the bus around for reads
system.mem_ctrls1.wrPerTurnAround::8-11          5448     11.16%     95.18% # Writes before turning the bus around for reads
system.mem_ctrls1.wrPerTurnAround::12-15         1490      3.05%     98.23% # Writes before turning the bus around for reads
system.mem_ctrls1.wrPerTurnAround::16-19          865      1.77%    100.00% # Writes before turning the bus around for reads
system.mem_ctrls1.wrPerTurnAround::total        48817                       # Writes before turning the bus around for reads
system.mem_ctrls1.totQLat                 28356221071                       # Total ticks spent queuing
system.mem_ctrls1.totMemAccLat            40338408571                       # Total ticks spent from burst creation until serviced by the DRAM
system.mem_ctrls1.totBusLat                3195250000                       # Total ticks spent in databus transfers
system.mem_ctrls1.avgQLat                    44372.46                       # Average queueing delay per DRAM burst
system.mem_ctrls1.avgBusLat                   5000.00                       # Average bus latency per DRAM burst
system.mem_ctrls1.avgMemAccLat               63122.46                       # Average memory access latency per DRAM burst
system.mem_ctrls1.avgRdBW                      320.69                       # Average DRAM read bandwidth in MiByte/s
system.mem_ctrls1.avgWrBW                      148.88                       # Average achieved write bandwidth in MiByte/s
system.mem_ctrls1.avgRdBWSys                   320.80                       # Average system read bandwidth in MiByte/s
system.mem_ctrls1.avgWrBWSys                   148.88                       # Average system write bandwidth in MiByte/s
system.mem_ctrls1.peakBW                     12800.00                       # Theoretical peak bandwidth in MiByte/s
system.mem_ctrls1.busUtil                        3.67                       # Data bus utilization in percentage
system.mem_ctrls1.busUtilRead                    2.51                       # Data bus utilization in percentage for reads
system.mem_ctrls1.busUtilWrite                   1.16                       # Data bus utilization in percentage for writes
system.mem_ctrls1.avgRdQLen                      1.46                       # Average read queue length when enqueuing
system.mem_ctrls1.avgWrQLen                      3.03                       # Average write queue length when enqueuing
system.mem_ctrls1.readRowHits                  484624                       # Number of row buffer hits during reads
system.mem_ctrls1.writeRowHits                 179581                       # Number of row buffer hits during writes
system.mem_ctrls1.readRowHitRate                75.84                       # Row buffer hit rate for reads
system.mem_ctrls1.writeRowHitRate               60.53                       # Row buffer hit rate for writes
system.mem_ctrls1.avgGap                    136263.77                       # Average gap between requests
system.mem_ctrls1.pageHitRate                   70.98                       # Row buffer hit rate, read and write combined
system.mem_ctrls1.memoryStateTime::IDLE   20789239250                       # Time in different power states
system.mem_ctrls1.memoryStateTime::REF     4258540000                       # Time in different power states
system.mem_ctrls1.memoryStateTime::PRE_PDN            0                       # Time in different power states
system.mem_ctrls1.memoryStateTime::ACT   102483920750                       # Time in different power states
system.mem_ctrls1.memoryStateTime::ACT_PDN            0                       # Time in different power states
system.mem_ctrls1.actEnergy::0             1033429320                       # Energy for activate commands per rank (pJ)
system.mem_ctrls1.actEnergy::1             1019125800                       # Energy for activate commands per rank (pJ)
system.mem_ctrls1.preEnergy::0              563875125                       # Energy for precharge commands per rank (pJ)
system.mem_ctrls1.preEnergy::1              556070625                       # Energy for precharge commands per rank (pJ)
system.mem_ctrls1.readEnergy::0            2502216600                       # Energy for read commands per rank (pJ)
system.mem_ctrls1.readEnergy::1            2482201800                       # Energy for read commands per rank (pJ)
system.mem_ctrls1.writeEnergy::0            964865520                       # Energy for write commands per rank (pJ)
system.mem_ctrls1.writeEnergy::1            957517200                       # Energy for write commands per rank (pJ)
system.mem_ctrls1.refreshEnergy::0         8329704240                       # Energy for refresh commands per rank (pJ)
system.mem_ctrls1.refreshEnergy::1         8329704240                       # Energy for refresh commands per rank (pJ)
system.mem_ctrls1.actBackEnergy::0        53384596020                       # Energy for active background per rank (pJ)
system.mem_ctrls1.actBackEnergy::1        53155627875                       # Energy for active background per rank (pJ)
system.mem_ctrls1.preBackEnergy::0        29690156250                       # Energy for precharge background per rank (pJ)
system.mem_ctrls1.preBackEnergy::1        29891005500                       # Energy for precharge background per rank (pJ)
system.mem_ctrls1.totalEnergy::0          96468843075                       # Total energy per rank (pJ)
system.mem_ctrls1.totalEnergy::1          96391253040                       # Total energy per rank (pJ)
system.mem_ctrls1.averagePower::0          756.432984                       # Core power per rank (mW)
system.mem_ctrls1.averagePower::1          755.824584                       # Core power per rank (mW)
system.mem_ctrls2.bytes_read::ruby.dir_cntrl2     40876672                       # Number of bytes read from this memory
system.mem_ctrls2.bytes_read::total          40876672                       # Number of bytes read from this memory
system.mem_ctrls2.bytes_written::ruby.dir_cntrl2     18974656                       # Number of bytes written to this memory
system.mem_ctrls2.bytes_written::total       18974656                       # Number of bytes written to this memory
system.mem_ctrls2.num_reads::ruby.dir_cntrl2       638698                       # Number of read requests responded to by this memory
system.mem_ctrls2.num_reads::total             638698                       # Number of read requests responded to by this memory
system.mem_ctrls2.num_writes::ruby.dir_cntrl2       296479                       # Number of write requests responded to by this memory
system.mem_ctrls2.num_writes::total            296479                       # Number of write requests responded to by this memory
system.mem_ctrls2.bw_read::ruby.dir_cntrl2    320512891                       # Total read bandwidth from this memory (bytes/s)
system.mem_ctrls2.bw_read::total            320512891                       # Total read bandwidth from this memory (bytes/s)
system.mem_ctrls2.bw_write::ruby.dir_cntrl2    148779770                       # Write bandwidth from this memory (bytes/s)
system.mem_ctrls2.bw_write::total           148779770                       # Write bandwidth from this memory (bytes/s)
system.mem_ctrls2.bw_total::ruby.dir_cntrl2    469292661                       # Total bandwidth to/from this memory (bytes/s)
system.mem_ctrls2.bw_total::total           469292661                       # Total bandwidth to/from this memory (bytes/s)
system.mem_ctrls2.readReqs                     638698                       # Number of read requests accepted
system.mem_ctrls2.writeReqs                    296479                       # Number of write requests accepted
system.mem_ctrls2.readBursts                   638698                       # Number of DRAM read bursts, including those serviced by the write queue
system.mem_ctrls2.writeBursts                  296479                       # Number of DRAM write bursts, including those merged in the write queue
system.mem_ctrls2.bytesReadDRAM              40868288                       # Total number of bytes read from DRAM
system.mem_ctrls2.bytesReadWrQ                   8384                       # Total number of bytes read from write queue
system.mem_ctrls2.bytesWritten               18974528                       # Total number of bytes written to DRAM
system.mem_ctrls2.bytesReadSys               40876672                       # Total read bytes from the system interface side
system.mem_ctrls2.bytesWrittenSys            18974656                       # Total written bytes from the system interface side
system.mem_ctrls2.servicedByWrQ                   131                       # Number of DRAM read bursts serviced by the write queue
system.mem_ctrls2.mergedWrBursts                    0                       # Number of DRAM write bursts merged with an existing one
system.mem_ctrls2.neitherReadNorWriteReqs            0                       # Number of requests that are neither read nor write
system.mem_ctrls2.perBankRdBursts::0            39981                       # Per bank write bursts
system.mem_ctrls2.perBankRdBursts::1            40136                       # Per bank write bursts
system.mem_ctrls2.perBankRdBursts::2            39777                       # Per bank write bursts
system.mem_ctrls2.perBankRdBursts::3            40033                       # Per bank write bursts
system.mem_ctrls2.perBankRdBursts::4            39703                       # Per bank write bursts
system.mem_ctrls2.perBankRdBursts::5            39653                       # Per bank write bursts
system.mem_ctrls2.perBankRdBursts::6            40911                       # Per bank write bursts
system.mem_ctrls2.perBankRdBursts::7            40340                       # Per bank write bursts
system.mem_ctrls2.perBankRdBursts::8            39546                       # Per bank write bursts
system.mem_ctrls2.perBankRdBursts::9            39703                       # Per bank write bursts
system.mem_ctrls2.perBankRdBursts::10           39535                       # Per bank write bursts
system.mem_ctrls2.perBankRdBursts::11           40084                       # Per bank write bursts
system.mem_ctrls2.perBankRdBursts::12           39367                       # Per bank write bursts
system.mem_ctrls2.perBankRdBursts::13           39370                       # Per bank write bursts
system.mem_ctrls2.perBankRdBursts::14           40280                       # Per bank write bursts
system.mem_ctrls2.perBankRdBursts::15           40148                       # Per bank write bursts
system.mem_ctrls2.perBankWrBursts::0            18539                       # Per bank write bursts
system.mem_ctrls2.perBankWrBursts::1            18506                       # Per bank write bursts
system.mem_ctrls2.perBankWrBursts::2            18579                       # Per bank write bursts
system.mem_ctrls2.perBankWrBursts::3            18553                       # Per bank write bursts
system.mem_ctrls2.perBankWrBursts::4            18513                       # Per bank write bursts
system.mem_ctrls2.perBankWrBursts::5            18537                       # Per bank write bursts
system.mem_ctrls2.perBankWrBursts::6            18727                       # Per bank write bursts
system.mem_ctrls2.perBankWrBursts::7            18773                       # Per bank write bursts
system.mem_ctrls2.perBankWrBursts::8            18441                       # Per bank write bursts
system.mem_ctrls2.perBankWrBursts::9            18515                       # Per bank write bursts
system.mem_ctrls2.perBankWrBursts::10           18400                       # Per bank write bursts
system.mem_ctrls2.perBankWrBursts::11           18484                       # Per bank write bursts
system.mem_ctrls2.perBankWrBursts::12           18380                       # Per bank write bursts
system.mem_ctrls2.perBankWrBursts::13           18393                       # Per bank write bursts
system.mem_ctrls2.perBankWrBursts::14           18576                       # Per bank write bursts
system.mem_ctrls2.perBankWrBursts::15           18561                       # Per bank write bursts
system.mem_ctrls2.numRdRetry                     1143                       # Number of times read queue was full causing retry
system.mem_ctrls2.numWrRetry                     5830                       # Number of times write queue was full causing retry
system.mem_ctrls2.totGap                 127535145500                       # Total gap between requests
system.mem_ctrls2.readPktSize::0                    0                       # Read request sizes (log2)
system.mem_ctrls2.readPktSize::1                    0                       # Read request sizes (log2)
system.mem_ctrls2.readPktSize::2                    0                       # Read request sizes (log2)
system.mem_ctrls2.readPktSize::3                    0                       # Read request sizes (log2)
system.mem_ctrls2.readPktSize::4                    0                       # Read request sizes (log2)
system.mem_ctrls2.readPktSize::5                    0                       # Read request sizes (log2)
system.mem_ctrls2.readPktSize::6               638698                       # Read request sizes (log2)
system.mem_ctrls2.writePktSize::0                   0                       # Write request sizes (log2)
system.mem_ctrls2.writePktSize::1                   0                       # Write request sizes (log2)
system.mem_ctrls2.writePktSize::2                   0                       # Write request sizes (log2)
system.mem_ctrls2.writePktSize::3                   0                       # Write request sizes (log2)
system.mem_ctrls2.writePktSize::4                   0                       # Write request sizes (log2)
system.mem_ctrls2.writePktSize::5                   0                       # Write request sizes (log2)
system.mem_ctrls2.writePktSize::6              296479                       # Write request sizes (log2)
system.mem_ctrls2.rdQLenPdf::0                 240003                       # What read queue length does an incoming req see
system.mem_ctrls2.rdQLenPdf::1                  83059                       # What read queue length does an incoming req see
system.mem_ctrls2.rdQLenPdf::2                  67986                       # What read queue length does an incoming req see
system.mem_ctrls2.rdQLenPdf::3                  56674                       # What read queue length does an incoming req see
system.mem_ctrls2.rdQLenPdf::4                  46262                       # What read queue length does an incoming req see
system.mem_ctrls2.rdQLenPdf::5                  36157                       # What read queue length does an incoming req see
system.mem_ctrls2.rdQLenPdf::6                  27426                       # What read queue length does an incoming req see
system.mem_ctrls2.rdQLenPdf::7                  19755                       # What read queue length does an incoming req see
system.mem_ctrls2.rdQLenPdf::8                  13483                       # What read queue length does an incoming req see
system.mem_ctrls2.rdQLenPdf::9                  10298                       # What read queue length does an incoming req see
system.mem_ctrls2.rdQLenPdf::10                  7789                       # What read queue length does an incoming req see
system.mem_ctrls2.rdQLenPdf::11                  6059                       # What read queue length does an incoming req see
system.mem_ctrls2.rdQLenPdf::12                  4467                       # What read queue length does an incoming req see
system.mem_ctrls2.rdQLenPdf::13                  3479                       # What read queue length does an incoming req see
system.mem_ctrls2.rdQLenPdf::14                  2749                       # What read queue length does an incoming req see
system.mem_ctrls2.rdQLenPdf::15                  2202                       # What read queue length does an incoming req see
system.mem_ctrls2.rdQLenPdf::16                  1773                       # What read queue length does an incoming req see
system.mem_ctrls2.rdQLenPdf::17                  1415                       # What read queue length does an incoming req see
system.mem_ctrls2.rdQLenPdf::18                  1155                       # What read queue length does an incoming req see
system.mem_ctrls2.rdQLenPdf::19                   984                       # What read queue length does an incoming req see
system.mem_ctrls2.rdQLenPdf::20                   786                       # What read queue length does an incoming req see
system.mem_ctrls2.rdQLenPdf::21                   635                       # What read queue length does an incoming req see
system.mem_ctrls2.rdQLenPdf::22                   548                       # What read queue length does an incoming req see
system.mem_ctrls2.rdQLenPdf::23                   452                       # What read queue length does an incoming req see
system.mem_ctrls2.rdQLenPdf::24                   355                       # What read queue length does an incoming req see
system.mem_ctrls2.rdQLenPdf::25                   308                       # What read queue length does an incoming req see
system.mem_ctrls2.rdQLenPdf::26                   251                       # What read queue length does an incoming req see
system.mem_ctrls2.rdQLenPdf::27                   228                       # What read queue length does an incoming req see
system.mem_ctrls2.rdQLenPdf::28                   185                       # What read queue length does an incoming req see
system.mem_ctrls2.rdQLenPdf::29                   160                       # What read queue length does an incoming req see
system.mem_ctrls2.rdQLenPdf::30                   159                       # What read queue length does an incoming req see
system.mem_ctrls2.rdQLenPdf::31                  1325                       # What read queue length does an incoming req see
system.mem_ctrls2.wrQLenPdf::0                  48141                       # What write queue length does an incoming req see
system.mem_ctrls2.wrQLenPdf::1                  52560                       # What write queue length does an incoming req see
system.mem_ctrls2.wrQLenPdf::2                  54530                       # What write queue length does an incoming req see
system.mem_ctrls2.wrQLenPdf::3                  55985                       # What write queue length does an incoming req see
system.mem_ctrls2.wrQLenPdf::4                  56638                       # What write queue length does an incoming req see
system.mem_ctrls2.wrQLenPdf::5                  10779                       # What write queue length does an incoming req see
system.mem_ctrls2.wrQLenPdf::6                   7337                       # What write queue length does an incoming req see
system.mem_ctrls2.wrQLenPdf::7                  10509                       # What write queue length does an incoming req see
system.mem_ctrls2.bytesPerActivate::samples       270626                       # Bytes accessed per row activation
system.mem_ctrls2.bytesPerActivate::mean   221.124770                       # Bytes accessed per row activation
system.mem_ctrls2.bytesPerActivate::gmean   170.248386                       # Bytes accessed per row activation
system.mem_ctrls2.bytesPerActivate::stdev   159.768737                       # Bytes accessed per row activation
system.mem_ctrls2.bytesPerActivate::0-127        75917     28.05%     28.05% # Bytes accessed per row activation
system.mem_ctrls2.bytesPerActivate::128-255        79636     29.43%     57.48% # Bytes accessed per row activation
system.mem_ctrls2.bytesPerActivate::256-383        72928     26.95%     84.43% # Bytes accessed per row activation
system.mem_ctrls2.bytesPerActivate::384-511        19736      7.29%     91.72% # Bytes accessed per row activation
system.mem_ctrls2.bytesPerActivate::512-639        16681      6.16%     97.88% # Bytes accessed per row activation
system.mem_ctrls2.bytesPerActivate::640-767         2589      0.96%     98.84% # Bytes accessed per row activation
system.mem_ctrls2.bytesPerActivate::768-895         1554      0.57%     99.41% # Bytes accessed per row activation
system.mem_ctrls2.bytesPerActivate::896-1023         1083      0.40%     99.81% # Bytes accessed per row activation
system.mem_ctrls2.bytesPerActivate::1024-1151          502      0.19%    100.00% # Bytes accessed per row activation
system.mem_ctrls2.bytesPerActivate::total       270626                       # Bytes accessed per row activation
system.mem_ctrls2.rdPerTurnAround::samples        48821                       # Reads before turning the bus around for writes
system.mem_ctrls2.rdPerTurnAround::mean     13.079761                       # Reads before turning the bus around for writes
system.mem_ctrls2.rdPerTurnAround::stdev    36.848464                       # Reads before turning the bus around for writes
system.mem_ctrls2.rdPerTurnAround::0-127        48426     99.19%     99.19% # Reads before turning the bus around for writes
system.mem_ctrls2.rdPerTurnAround::128-255          247      0.51%     99.70% # Reads before turning the bus around for writes
system.mem_ctrls2.rdPerTurnAround::256-383           68      0.14%     99.84% # Reads before turning the bus around for writes
system.mem_ctrls2.rdPerTurnAround::384-511           30      0.06%     99.90% # Reads before turning the bus around for writes
system.mem_ctrls2.rdPerTurnAround::512-639           19      0.04%     99.94% # Reads before turning the bus around for writes
system.mem_ctrls2.rdPerTurnAround::640-767           10      0.02%     99.96% # Reads before turning the bus around for writes
system.mem_ctrls2.rdPerTurnAround::768-895            8      0.02%     99.97% # Reads before turning the bus around for writes
system.mem_ctrls2.rdPerTurnAround::896-1023            5      0.01%     99.98% # Reads before turning the bus around for writes
system.mem_ctrls2.rdPerTurnAround::1024-1151            2      0.00%     99.99% # Reads before turning the bus around for writes
system.mem_ctrls2.rdPerTurnAround::1152-1279            3      0.01%     99.99% # Reads before turning the bus around for writes
system.mem_ctrls2.rdPerTurnAround::1280-1407            1      0.00%    100.00% # Reads before turning the bus around for writes
system.mem_ctrls2.rdPerTurnAround::1536-1663            1      0.00%    100.00% # Reads before turning the bus around for writes
system.mem_ctrls2.rdPerTurnAround::2816-2943            1      0.00%    100.00% # Reads before turning the bus around for writes
system.mem_ctrls2.rdPerTurnAround::total        48821                       # Reads before turning the bus around for writes
system.mem_ctrls2.wrPerTurnAround::samples        48820                       # Writes before turning the bus around for reads
system.mem_ctrls2.wrPerTurnAround::mean      6.072798                       # Writes before turning the bus around for reads
system.mem_ctrls2.wrPerTurnAround::gmean     5.789953                       # Writes before turning the bus around for reads
system.mem_ctrls2.wrPerTurnAround::stdev     2.294966                       # Writes before turning the bus around for reads
system.mem_ctrls2.wrPerTurnAround::4-7          41060     84.10%     84.10% # Writes before turning the bus around for reads
system.mem_ctrls2.wrPerTurnAround::8-11          5420     11.10%     95.21% # Writes before turning the bus around for reads
system.mem_ctrls2.wrPerTurnAround::12-15         1458      2.99%     98.19% # Writes before turning the bus around for reads
system.mem_ctrls2.wrPerTurnAround::16-19          882      1.81%    100.00% # Writes before turning the bus around for reads
system.mem_ctrls2.wrPerTurnAround::total        48820                       # Writes before turning the bus around for reads
system.mem_ctrls2.totQLat                 28179023067                       # Total ticks spent queuing
system.mem_ctrls2.totMemAccLat            40152154317                       # Total ticks spent from burst creation until serviced by the DRAM
system.mem_ctrls2.totBusLat                3192835000                       # Total ticks spent in databus transfers
system.mem_ctrls2.avgQLat                    44128.53                       # Average queueing delay per DRAM burst
system.mem_ctrls2.avgBusLat                   5000.00                       # Average bus latency per DRAM burst
system.mem_ctrls2.avgMemAccLat               62878.53                       # Average memory access latency per DRAM burst
system.mem_ctrls2.avgRdBW                      320.45                       # Average DRAM read bandwidth in MiByte/s
system.mem_ctrls2.avgWrBW                      148.78                       # Average achieved write bandwidth in MiByte/s
system.mem_ctrls2.avgRdBWSys                   320.51                       # Average system read bandwidth in MiByte/s
system.mem_ctrls2.avgWrBWSys                   148.78                       # Average system write bandwidth in MiByte/s
system.mem_ctrls2.peakBW                     12800.00                       # Theoretical peak bandwidth in MiByte/s
system.mem_ctrls2.busUtil                        3.67                       # Data bus utilization in percentage
system.mem_ctrls2.busUtilRead                    2.50                       # Data bus utilization in percentage for reads
system.mem_ctrls2.busUtilWrite                   1.16                       # Data bus utilization in percentage for writes
system.mem_ctrls2.avgRdQLen                      1.46                       # Average read queue length when enqueuing
system.mem_ctrls2.avgWrQLen                      3.03                       # Average write queue length when enqueuing
system.mem_ctrls2.readRowHits                  484520                       # Number of row buffer hits during reads
system.mem_ctrls2.writeRowHits                 179891                       # Number of row buffer hits during writes
system.mem_ctrls2.readRowHitRate                75.88                       # Row buffer hit rate for reads
system.mem_ctrls2.writeRowHitRate               60.68                       # Row buffer hit rate for writes
system.mem_ctrls2.avgGap                    136375.41                       # Average gap between requests
system.mem_ctrls2.pageHitRate                   71.06                       # Row buffer hit rate, read and write combined
system.mem_ctrls2.memoryStateTime::IDLE   20921729250                       # Time in different power states
system.mem_ctrls2.memoryStateTime::REF     4258540000                       # Time in different power states
system.mem_ctrls2.memoryStateTime::PRE_PDN            0                       # Time in different power states
system.mem_ctrls2.memoryStateTime::ACT   102350993250                       # Time in different power states
system.mem_ctrls2.memoryStateTime::ACT_PDN            0                       # Time in different power states
system.mem_ctrls2.actEnergy::0             1028318760                       # Energy for activate commands per rank (pJ)
system.mem_ctrls2.actEnergy::1             1017560880                       # Energy for activate commands per rank (pJ)
system.mem_ctrls2.preEnergy::0              561086625                       # Energy for precharge commands per rank (pJ)
system.mem_ctrls2.preEnergy::1              555216750                       # Energy for precharge commands per rank (pJ)
system.mem_ctrls2.readEnergy::0            2500134000                       # Energy for read commands per rank (pJ)
system.mem_ctrls2.readEnergy::1            2480571600                       # Energy for read commands per rank (pJ)
system.mem_ctrls2.writeEnergy::0            963725040                       # Energy for write commands per rank (pJ)
system.mem_ctrls2.writeEnergy::1            957394080                       # Energy for write commands per rank (pJ)
system.mem_ctrls2.refreshEnergy::0         8329704240                       # Energy for refresh commands per rank (pJ)
system.mem_ctrls2.refreshEnergy::1         8329704240                       # Energy for refresh commands per rank (pJ)
system.mem_ctrls2.actBackEnergy::0        53621873910                       # Energy for active background per rank (pJ)
system.mem_ctrls2.actBackEnergy::1        53115021360                       # Energy for active background per rank (pJ)
system.mem_ctrls2.preBackEnergy::0        29482017750                       # Energy for precharge background per rank (pJ)
system.mem_ctrls2.preBackEnergy::1        29926625250                       # Energy for precharge background per rank (pJ)
system.mem_ctrls2.totalEnergy::0          96486860325                       # Total energy per rank (pJ)
system.mem_ctrls2.totalEnergy::1          96382094160                       # Total energy per rank (pJ)
system.mem_ctrls2.averagePower::0          756.574261                       # Core power per rank (mW)
system.mem_ctrls2.averagePower::1          755.752767                       # Core power per rank (mW)
system.mem_ctrls3.bytes_read::ruby.dir_cntrl3     40893312                       # Number of bytes read from this memory
system.mem_ctrls3.bytes_read::total          40893312                       # Number of bytes read from this memory
system.mem_ctrls3.bytes_written::ruby.dir_cntrl3     18982464                       # Number of bytes written to this memory
system.mem_ctrls3.bytes_written::total       18982464                       # Number of bytes written to this memory
system.mem_ctrls3.num_reads::ruby.dir_cntrl3       638958                       # Number of read requests responded to by this memory
system.mem_ctrls3.num_reads::total             638958                       # Number of read requests responded to by this memory
system.mem_ctrls3.num_writes::ruby.dir_cntrl3       296601                       # Number of write requests responded to by this memory
system.mem_ctrls3.num_writes::total            296601                       # Number of write requests responded to by this memory
system.mem_ctrls3.bw_read::ruby.dir_cntrl3    320643365                       # Total read bandwidth from this memory (bytes/s)
system.mem_ctrls3.bw_read::total            320643365                       # Total read bandwidth from this memory (bytes/s)
system.mem_ctrls3.bw_write::ruby.dir_cntrl3    148840992                       # Write bandwidth from this memory (bytes/s)
system.mem_ctrls3.bw_write::total           148840992                       # Write bandwidth from this memory (bytes/s)
system.mem_ctrls3.bw_total::ruby.dir_cntrl3    469484357                       # Total bandwidth to/from this memory (bytes/s)
system.mem_ctrls3.bw_total::total           469484357                       # Total bandwidth to/from this memory (bytes/s)
system.mem_ctrls3.readReqs                     638959                       # Number of read requests accepted
system.mem_ctrls3.writeReqs                    296601                       # Number of write requests accepted
system.mem_ctrls3.readBursts                   638959                       # Number of DRAM read bursts, including those serviced by the write queue
system.mem_ctrls3.writeBursts                  296601                       # Number of DRAM write bursts, including those merged in the write queue
system.mem_ctrls3.bytesReadDRAM              40883904                       # Total number of bytes read from DRAM
system.mem_ctrls3.bytesReadWrQ                   9472                       # Total number of bytes read from write queue
system.mem_ctrls3.bytesWritten               18982208                       # Total number of bytes written to DRAM
system.mem_ctrls3.bytesReadSys               40893376                       # Total read bytes from the system interface side
system.mem_ctrls3.bytesWrittenSys            18982464                       # Total written bytes from the system interface side
system.mem_ctrls3.servicedByWrQ                   148                       # Number of DRAM read bursts serviced by the write queue
system.mem_ctrls3.mergedWrBursts                    0                       # Number of DRAM write bursts merged with an existing one
system.mem_ctrls3.neitherReadNorWriteReqs            0                       # Number of requests that are neither read nor write
system.mem_ctrls3.perBankRdBursts::0            40018                       # Per bank write bursts
system.mem_ctrls3.perBankRdBursts::1            40058                       # Per bank write bursts
system.mem_ctrls3.perBankRdBursts::2            39775                       # Per bank write bursts
system.mem_ctrls3.perBankRdBursts::3            40067                       # Per bank write bursts
system.mem_ctrls3.perBankRdBursts::4            39655                       # Per bank write bursts
system.mem_ctrls3.perBankRdBursts::5            39705                       # Per bank write bursts
system.mem_ctrls3.perBankRdBursts::6            40910                       # Per bank write bursts
system.mem_ctrls3.perBankRdBursts::7            40329                       # Per bank write bursts
system.mem_ctrls3.perBankRdBursts::8            39621                       # Per bank write bursts
system.mem_ctrls3.perBankRdBursts::9            39585                       # Per bank write bursts
system.mem_ctrls3.perBankRdBursts::10           39687                       # Per bank write bursts
system.mem_ctrls3.perBankRdBursts::11           40002                       # Per bank write bursts
system.mem_ctrls3.perBankRdBursts::12           39408                       # Per bank write bursts
system.mem_ctrls3.perBankRdBursts::13           39407                       # Per bank write bursts
system.mem_ctrls3.perBankRdBursts::14           40407                       # Per bank write bursts
system.mem_ctrls3.perBankRdBursts::15           40177                       # Per bank write bursts
system.mem_ctrls3.perBankWrBursts::0            18576                       # Per bank write bursts
system.mem_ctrls3.perBankWrBursts::1            18475                       # Per bank write bursts
system.mem_ctrls3.perBankWrBursts::2            18620                       # Per bank write bursts
system.mem_ctrls3.perBankWrBursts::3            18588                       # Per bank write bursts
system.mem_ctrls3.perBankWrBursts::4            18502                       # Per bank write bursts
system.mem_ctrls3.perBankWrBursts::5            18563                       # Per bank write bursts
system.mem_ctrls3.perBankWrBursts::6            18732                       # Per bank write bursts
system.mem_ctrls3.perBankWrBursts::7            18727                       # Per bank write bursts
system.mem_ctrls3.perBankWrBursts::8            18487                       # Per bank write bursts
system.mem_ctrls3.perBankWrBursts::9            18465                       # Per bank write bursts
system.mem_ctrls3.perBankWrBursts::10           18470                       # Per bank write bursts
system.mem_ctrls3.perBankWrBursts::11           18515                       # Per bank write bursts
system.mem_ctrls3.perBankWrBursts::12           18400                       # Per bank write bursts
system.mem_ctrls3.perBankWrBursts::13           18389                       # Per bank write bursts
system.mem_ctrls3.perBankWrBursts::14           18612                       # Per bank write bursts
system.mem_ctrls3.perBankWrBursts::15           18476                       # Per bank write bursts
system.mem_ctrls3.numRdRetry                     1056                       # Number of times read queue was full causing retry
system.mem_ctrls3.numWrRetry                     5148                       # Number of times write queue was full causing retry
system.mem_ctrls3.totGap                 127534441500                       # Total gap between requests
system.mem_ctrls3.readPktSize::0                    0                       # Read request sizes (log2)
system.mem_ctrls3.readPktSize::1                    0                       # Read request sizes (log2)
system.mem_ctrls3.readPktSize::2                    0                       # Read request sizes (log2)
system.mem_ctrls3.readPktSize::3                    0                       # Read request sizes (log2)
system.mem_ctrls3.readPktSize::4                    0                       # Read request sizes (log2)
system.mem_ctrls3.readPktSize::5                    0                       # Read request sizes (log2)
system.mem_ctrls3.readPktSize::6               638959                       # Read request sizes (log2)
system.mem_ctrls3.writePktSize::0                   0                       # Write request sizes (log2)
system.mem_ctrls3.writePktSize::1                   0                       # Write request sizes (log2)
system.mem_ctrls3.writePktSize::2                   0                       # Write request sizes (log2)
[...]
system.ruby.L2Cache_Controller.MT_MB.L1_PUTX::total            5                      
system.ruby.L2Cache_Controller.MT_MB.L1_PUTX_old |           1    100.00%    100.00% |           0      0.00%    100.00% |           0      0.00%    100.00% |           0      0.00%    100.00% |           0      0.00%    100.00% |           0      0.00%    100.00% |           0      0.00%    100.00% |           0      0.00%    100.00% |           0      0.00%    100.00% |           0      0.00%    100.00% |           0      0.00%    100.00% |           0      0.00%    100.00% |           0      0.00%    100.00% |           0      0.00%    100.00% |           0      0.00%    100.00% |           0      0.00%    100.00% |           0      0.00%    100.00% |           0      0.00%    100.00% |           0      0.00%    100.00% |           0      0.00%    100.00% |           0      0.00%    100.00% |           0      0.00%    100.00% |           0      0.00%    100.00% |           0      0.00%    100.00% |           0      0.00%    100.00% |           0      0.00%    100.00% |           0      0.00%    100.00% |           0      0.00%    100.00% |           0      0.00%    100.00% |           0      0.00%    100.00% |           0      0.00%    100.00% |           0      0.00%    100.00%
system.ruby.L2Cache_Controller.MT_MB.L1_PUTX_old::total            1                      
system.ruby.L2Cache_Controller.MT_MB.Exclusive_Unblock |      214550      5.27%      5.27% |      124250      3.05%      8.33% |      122731      3.02%     11.34% |      124667      3.06%     14.41% |      122546      3.01%     17.42% |      121777      2.99%     20.41% |      121916      3.00%     23.41% |      121385      2.98%     26.39% |      121882      3.00%     29.39% |      122623      3.01%     32.40% |      124516      3.06%     35.46% |      123387      3.03%     38.50% |      122240      3.00%     41.50% |      122680      3.02%     44.52% |      121461      2.99%     47.50% |      121673      2.99%     50.49% |      122910      3.02%     53.51% |      122997      3.02%     56.54% |      123499      3.04%     59.57% |      123821      3.04%     62.61% |      124087      3.05%     65.66% |      138625      3.41%     69.07% |      132306      3.25%     72.32% |      123020      3.02%     75.35% |      123526      3.04%     78.38% |      123745      3.04%     81.42% |      123337      3.03%     84.46% |      123134      3.03%     87.48% |      124473      3.06%     90.54% |      123565      3.04%     93.58% |      127096      3.12%     96.70% |      134185      3.30%    100.00%
system.ruby.L2Cache_Controller.MT_MB.Exclusive_Unblock::total      4068610                      
system.ruby.L2Cache_Controller.MT_IIB.L1_GETS |           0      0.00%      0.00% |           0      0.00%      0.00% |           0      0.00%      0.00% |           0      0.00%      0.00% |           4    100.00%    100.00% |           0      0.00%    100.00% |           0      0.00%    100.00% |           0      0.00%    100.00% |           0      0.00%    100.00% |           0      0.00%    100.00% |           0      0.00%    100.00% |           0      0.00%    100.00% |           0      0.00%    100.00% |           0      0.00%    100.00% |           0      0.00%    100.00% |           0      0.00%    100.00% |           0      0.00%    100.00% |           0      0.00%    100.00% |           0      0.00%    100.00% |           0      0.00%    100.00% |           0      0.00%    100.00% |           0      0.00%    100.00% |           0      0.00%    100.00% |           0      0.00%    100.00% |           0      0.00%    100.00% |           0      0.00%    100.00% |           0      0.00%    100.00% |           0      0.00%    100.00% |           0      0.00%    100.00% |           0      0.00%    100.00% |           0      0.00%    100.00% |           0      0.00%    100.00%
system.ruby.L2Cache_Controller.MT_IIB.L1_GETS::total            4                      
system.ruby.L2Cache_Controller.MT_IIB.L1_PUTX |           0      0.00%      0.00% |           0      0.00%      0.00% |           0      0.00%      0.00% |           2      3.45%      3.45% |           0      0.00%      3.45% |           0      0.00%      3.45% |           2      3.45%      6.90% |           1      1.72%      8.62% |           1      1.72%     10.34% |           0      0.00%     10.34% |           2      3.45%     13.79% |           2      3.45%     17.24% |           2      3.45%     20.69% |           2      3.45%     24.14% |           1      1.72%     25.86% |           3      5.17%     31.03% |           2      3.45%     34.48% |           1      1.72%     36.21% |           2      3.45%     39.66% |           4      6.90%     46.55% |           4      6.90%     53.45% |           0      0.00%     53.45% |           1      1.72%     55.17% |           1      1.72%     56.90% |           2      3.45%     60.34% |           3      5.17%     65.52% |           2      3.45%     68.97% |           7     12.07%     81.03% |           4      6.90%     87.93% |           4      6.90%     94.83% |           0      0.00%     94.83% |           3      5.17%    100.00%
system.ruby.L2Cache_Controller.MT_IIB.L1_PUTX::total           58                      
system.ruby.L2Cache_Controller.MT_IIB.WB_Data |           0      0.00%      0.00% |           0      0.00%      0.00% |           0      0.00%      0.00% |           0      0.00%      0.00% |           0      0.00%      0.00% |           0      0.00%      0.00% |           0      0.00%      0.00% |           0      0.00%      0.00% |           0      0.00%      0.00% |           0      0.00%      0.00% |           0      0.00%      0.00% |           0      0.00%      0.00% |           0      0.00%      0.00% |           0      0.00%      0.00% |           0      0.00%      0.00% |           0      0.00%      0.00% |           0      0.00%      0.00% |           0      0.00%      0.00% |           0      0.00%      0.00% |           0      0.00%      0.00% |           0      0.00%      0.00% |           2     40.00%     40.00% |           0      0.00%     40.00% |           0      0.00%     40.00% |           0      0.00%     40.00% |           0      0.00%     40.00% |           1     20.00%     60.00% |           0      0.00%     60.00% |           0      0.00%     60.00% |           0      0.00%     60.00% |           0      0.00%     60.00% |           2     40.00%    100.00%
system.ruby.L2Cache_Controller.MT_IIB.WB_Data::total            5                      
system.ruby.L2Cache_Controller.MT_IIB.WB_Data_clean |         585      3.05%      3.05% |         590      3.08%      6.13% |         564      2.94%      9.07% |         525      2.74%     11.81% |         514      2.68%     14.50% |         452      2.36%     16.85% |         518      2.70%     19.56% |         480      2.50%     22.06% |         535      2.79%     24.85% |         464      2.42%     27.28% |         523      2.73%     30.00% |         453      2.36%     32.37% |         501      2.61%     34.98% |         494      2.58%     37.56% |         570      2.97%     40.53% |         536      2.80%     43.33% |         611      3.19%     46.52% |         595      3.10%     49.62% |         646      3.37%     53.00% |         630      3.29%     56.28% |         661      3.45%     59.73% |         629      3.28%     63.01% |         728      3.80%     66.81% |         641      3.34%     70.16% |         725      3.78%     73.94% |         721      3.76%     77.70% |         724      3.78%     81.48% |         696      3.63%     85.11% |         763      3.98%     89.09% |         698      3.64%     92.74% |         721      3.76%     96.50% |         671      3.50%    100.00%
system.ruby.L2Cache_Controller.MT_IIB.WB_Data_clean::total        19164                      
system.ruby.L2Cache_Controller.MT_IIB.Unblock |           7      1.52%      1.52% |           6      1.30%      2.81% |          11      2.38%      5.19% |           9      1.95%      7.14% |          19      4.11%     11.26% |          21      4.55%     15.80% |          19      4.11%     19.91% |           5      1.08%     21.00% |          13      2.81%     23.81% |          20      4.33%     28.14% |          18      3.90%     32.03% |          19      4.11%     36.15% |          11      2.38%     38.53% |           7      1.52%     40.04% |          20      4.33%     44.37% |          17      3.68%     48.05% |          14      3.03%     51.08% |          11      2.38%     53.46% |          16      3.46%     56.93% |           5      1.08%     58.01% |          24      5.19%     63.20% |          16      3.46%     66.67% |          14      3.03%     69.70% |          17      3.68%     73.38% |          17      3.68%     77.06% |          10      2.16%     79.22% |          11      2.38%     81.60% |          10      2.16%     83.77% |          12      2.60%     86.36% |          20      4.33%     90.69% |          27      5.84%     96.54% |          16      3.46%    100.00%
system.ruby.L2Cache_Controller.MT_IIB.Unblock::total          462                      
system.ruby.L2Cache_Controller.MT_IB.WB_Data_clean |           7      1.52%      1.52% |           6      1.30%      2.81% |          11      2.38%      5.19% |           9      1.95%      7.14% |          19      4.11%     11.26% |          21      4.55%     15.80% |          19      4.11%     19.91% |           5      1.08%     21.00% |          13      2.81%     23.81% |          20      4.33%     28.14% |          18      3.90%     32.03% |          19      4.11%     36.15% |          11      2.38%     38.53% |           7      1.52%     40.04% |          20      4.33%     44.37% |          17      3.68%     48.05% |          14      3.03%     51.08% |          11      2.38%     53.46% |          16      3.46%     56.93% |           5      1.08%     58.01% |          24      5.19%     63.20% |          16      3.46%     66.67% |          14      3.03%     69.70% |          17      3.68%     73.38% |          17      3.68%     77.06% |          10      2.16%     79.22% |          11      2.38%     81.60% |          10      2.16%     83.77% |          12      2.60%     86.36% |          20      4.33%     90.69% |          27      5.84%     96.54% |          16      3.46%    100.00%
system.ruby.L2Cache_Controller.MT_IB.WB_Data_clean::total          462                      
system.ruby.L2Cache_Controller.MT_SB.L1_GETS |           0      0.00%      0.00% |           0      0.00%      0.00% |           0      0.00%      0.00% |           0      0.00%      0.00% |           2    100.00%    100.00% |           0      0.00%    100.00% |           0      0.00%    100.00% |           0      0.00%    100.00% |           0      0.00%    100.00% |           0      0.00%    100.00% |           0      0.00%    100.00% |           0      0.00%    100.00% |           0      0.00%    100.00% |           0      0.00%    100.00% |           0      0.00%    100.00% |           0      0.00%    100.00% |           0      0.00%    100.00% |           0      0.00%    100.00% |           0      0.00%    100.00% |           0      0.00%    100.00% |           0      0.00%    100.00% |           0      0.00%    100.00% |           0      0.00%    100.00% |           0      0.00%    100.00% |           0      0.00%    100.00% |           0      0.00%    100.00% |           0      0.00%    100.00% |           0      0.00%    100.00% |           0      0.00%    100.00% |           0      0.00%    100.00% |           0      0.00%    100.00% |           0      0.00%    100.00%
system.ruby.L2Cache_Controller.MT_SB.L1_GETS::total            2                      
system.ruby.L2Cache_Controller.MT_SB.L1_PUTX |           0      0.00%      0.00% |           0      0.00%      0.00% |           0      0.00%      0.00% |           0      0.00%      0.00% |           0      0.00%      0.00% |           0      0.00%      0.00% |           0      0.00%      0.00% |           0      0.00%      0.00% |           0      0.00%      0.00% |           1     14.29%     14.29% |           1     14.29%     28.57% |           0      0.00%     28.57% |           0      0.00%     28.57% |           0      0.00%     28.57% |           0      0.00%     28.57% |           0      0.00%     28.57% |           0      0.00%     28.57% |           0      0.00%     28.57% |           0      0.00%     28.57% |           0      0.00%     28.57% |           0      0.00%     28.57% |           1     14.29%     42.86% |           0      0.00%     42.86% |           0      0.00%     42.86% |           0      0.00%     42.86% |           0      0.00%     42.86% |           3     42.86%     85.71% |           0      0.00%     85.71% |           0      0.00%     85.71% |           0      0.00%     85.71% |           0      0.00%     85.71% |           1     14.29%    100.00%
system.ruby.L2Cache_Controller.MT_SB.L1_PUTX::total            7                      
system.ruby.L2Cache_Controller.MT_SB.Unblock |         585      3.05%      3.05% |         590      3.08%      6.13% |         564      2.94%      9.07% |         525      2.74%     11.81% |         514      2.68%     14.49% |         452      2.36%     16.85% |         518      2.70%     19.55% |         480      2.50%     22.06% |         535      2.79%     24.85% |         464      2.42%     27.27% |         523      2.73%     30.00% |         453      2.36%     32.36% |         501      2.61%     34.97% |         494      2.58%     37.55% |         570      2.97%     40.52% |         536      2.80%     43.32% |         611      3.19%     46.51% |         595      3.10%     49.61% |         646      3.37%     52.98% |         630      3.29%     56.27% |         661      3.45%     59.72% |         631      3.29%     63.01% |         728      3.80%     66.81% |         641      3.34%     70.15% |         725      3.78%     73.93% |         721      3.76%     77.69% |         725      3.78%     81.48% |         696      3.63%     85.11% |         763      3.98%     89.09% |         698      3.64%     92.73% |         721      3.76%     96.49% |         673      3.51%    100.00%
system.ruby.L2Cache_Controller.MT_SB.Unblock::total        19169                      
system.ruby.SimicsNetworkPortInterface_Controller.MessageSend |     1558954     24.92%     24.92% |     3127375     50.00%     74.92% |      195501      3.13%     78.05% |      196114      3.14%     81.19% |      195850      3.13%     84.32% |      196158      3.14%     87.45% |      196330      3.14%     90.59% |      196543      3.14%     93.73% |      196087      3.14%     96.87% |      195838      3.13%    100.00% |           0      0.00%    100.00% |           0      0.00%    100.00% |           0      0.00%    100.00% |           0      0.00%    100.00% |           0      0.00%    100.00% |           0      0.00%    100.00% |           0      0.00%    100.00% |           0      0.00%    100.00% |           0      0.00%    100.00% |           0      0.00%    100.00% |           0      0.00%    100.00% |           0      0.00%    100.00% |           0      0.00%    100.00% |           0      0.00%    100.00% |           0      0.00%    100.00% |           0      0.00%    100.00% |           0      0.00%    100.00% |           0      0.00%    100.00% |           0      0.00%    100.00% |           0      0.00%    100.00% |           0      0.00%    100.00% |           0      0.00%    100.00%
system.ruby.SimicsNetworkPortInterface_Controller.MessageSend::total      6254750                      
system.ruby.SimicsNetworkPortInterface_Controller.MessageRecv |     1558954     24.92%     24.92% |     3127375     50.00%     74.92% |      195501      3.13%     78.05% |      196114      3.14%     81.19% |      195850      3.13%     84.32% |      196158      3.14%     87.45% |      196330      3.14%     90.59% |      196543      3.14%     93.73% |      196087      3.14%     96.87% |      195838      3.13%    100.00% |           0      0.00%    100.00% |           0      0.00%    100.00% |           0      0.00%    100.00% |           0      0.00%    100.00% |           0      0.00%    100.00% |           0      0.00%    100.00% |           0      0.00%    100.00% |           0      0.00%    100.00% |           0      0.00%    100.00% |           0      0.00%    100.00% |           0      0.00%    100.00% |           0      0.00%    100.00% |           0      0.00%    100.00% |           0      0.00%    100.00% |           0      0.00%    100.00% |           0      0.00%    100.00% |           0      0.00%    100.00% |           0      0.00%    100.00% |           0      0.00%    100.00% |           0      0.00%    100.00% |           0      0.00%    100.00% |           0      0.00%    100.00%
system.ruby.SimicsNetworkPortInterface_Controller.MessageRecv::total      6254750                      
system.ruby.SimicsNetworkPortInterface_Controller.A.MessageSend |     1558954     24.92%     24.92% |     3127375     50.00%     74.92% |      195501      3.13%     78.05% |      196114      3.14%     81.19% |      195850      3.13%     84.32% |      196158      3.14%     87.45% |      196330      3.14%     90.59% |      196543      3.14%     93.73% |      196087      3.14%     96.87% |      195838      3.13%    100.00% |           0      0.00%    100.00% |           0      0.00%    100.00% |           0      0.00%    100.00% |           0      0.00%    100.00% |           0      0.00%    100.00% |           0      0.00%    100.00% |           0      0.00%    100.00% |           0      0.00%    100.00% |           0      0.00%    100.00% |           0      0.00%    100.00% |           0      0.00%    100.00% |           0      0.00%    100.00% |           0      0.00%    100.00% |           0      0.00%    100.00% |           0      0.00%    100.00% |           0      0.00%    100.00% |           0      0.00%    100.00% |           0      0.00%    100.00% |           0      0.00%    100.00% |           0      0.00%    100.00% |           0      0.00%    100.00% |           0      0.00%    100.00%
system.ruby.SimicsNetworkPortInterface_Controller.A.MessageSend::total      6254750                      
system.ruby.SimicsNetworkPortInterface_Controller.A.MessageRecv |     1558954     24.92%     24.92% |     3127375     50.00%     74.92% |      195501      3.13%     78.05% |      196114      3.14%     81.19% |      195850      3.13%     84.32% |      196158      3.14%     87.45% |      196330      3.14%     90.59% |      196543      3.14%     93.73% |      196087      3.14%     96.87% |      195838      3.13%    100.00% |           0      0.00%    100.00% |           0      0.00%    100.00% |           0      0.00%    100.00% |           0      0.00%    100.00% |           0      0.00%    100.00% |           0      0.00%    100.00% |           0      0.00%    100.00% |           0      0.00%    100.00% |           0      0.00%    100.00% |           0      0.00%    100.00% |           0      0.00%    100.00% |           0      0.00%    100.00% |           0      0.00%    100.00% |           0      0.00%    100.00% |           0      0.00%    100.00% |           0      0.00%    100.00% |           0      0.00%    100.00% |           0      0.00%    100.00% |           0      0.00%    100.00% |           0      0.00%    100.00% |           0      0.00%    100.00% |           0      0.00%    100.00%
system.ruby.SimicsNetworkPortInterface_Controller.A.MessageRecv::total      6254750                      
system.switch_cpus.kern.inst.arm                    0                       # number of arm instructions executed
system.switch_cpus.kern.inst.quiesce                0                       # number of quiesce instructions executed

---------- End Simulation Statistics   ----------
