
---------- Begin Simulation Statistics ----------
sim_seconds                                  0.091555                       # Number of seconds simulated
sim_ticks                                 91554927000                       # Number of ticks simulated
final_tick                               5267723005500                       # Number of ticks from beginning of simulation (restored from checkpoints and never reset)
sim_freq                                 1000000000000                       # Frequency of simulated ticks
host_inst_rate                                  22918                       # Simulator instruction rate (inst/s)
host_op_rate                                    40682                       # Simulator op (including micro ops) rate (op/s)
host_tick_rate                               51870938                       # Simulator tick rate (ticks/s)
host_mem_usage                                5544416                       # Number of bytes of host memory used
host_seconds                                  1765.05                       # Real time elapsed on the host
sim_insts                                    40451551                       # Number of instructions simulated
sim_ops                                      71805159                       # Number of ops (including micro ops) simulated
system.voltage_domain.voltage                       1                       # Voltage in Volts
system.clk_domain.clock                           500                       # Clock period in ticks
system.mem_ctrls0.bytes_read::ruby.dir_cntrl0     21125888                       # Number of bytes read from this memory
system.mem_ctrls0.bytes_read::total          21125888                       # Number of bytes read from this memory
system.mem_ctrls0.bytes_written::ruby.dir_cntrl0     11911424                       # Number of bytes written to this memory
system.mem_ctrls0.bytes_written::total       11911424                       # Number of bytes written to this memory
system.mem_ctrls0.num_reads::ruby.dir_cntrl0       330092                       # Number of read requests responded to by this memory
system.mem_ctrls0.num_reads::total             330092                       # Number of read requests responded to by this memory
system.mem_ctrls0.num_writes::ruby.dir_cntrl0       186116                       # Number of write requests responded to by this memory
system.mem_ctrls0.num_writes::total            186116                       # Number of write requests responded to by this memory
system.mem_ctrls0.bw_read::ruby.dir_cntrl0    230745506                       # Total read bandwidth from this memory (bytes/s)
system.mem_ctrls0.bw_read::total            230745506                       # Total read bandwidth from this memory (bytes/s)
system.mem_ctrls0.bw_write::ruby.dir_cntrl0    130101398                       # Write bandwidth from this memory (bytes/s)
system.mem_ctrls0.bw_write::total           130101398                       # Write bandwidth from this memory (bytes/s)
system.mem_ctrls0.bw_total::ruby.dir_cntrl0    360846905                       # Total bandwidth to/from this memory (bytes/s)
system.mem_ctrls0.bw_total::total           360846905                       # Total bandwidth to/from this memory (bytes/s)
system.mem_ctrls0.readReqs                     330092                       # Number of read requests accepted
system.mem_ctrls0.writeReqs                    186116                       # Number of write requests accepted
system.mem_ctrls0.readBursts                   330092                       # Number of DRAM read bursts, including those serviced by the write queue
system.mem_ctrls0.writeBursts                  186116                       # Number of DRAM write bursts, including those merged in the write queue
system.mem_ctrls0.bytesReadDRAM              21123328                       # Total number of bytes read from DRAM
system.mem_ctrls0.bytesReadWrQ                   2560                       # Total number of bytes read from write queue
system.mem_ctrls0.bytesWritten               11911296                       # Total number of bytes written to DRAM
system.mem_ctrls0.bytesReadSys               21125888                       # Total read bytes from the system interface side
system.mem_ctrls0.bytesWrittenSys            11911424                       # Total written bytes from the system interface side
system.mem_ctrls0.servicedByWrQ                    40                       # Number of DRAM read bursts serviced by the write queue
system.mem_ctrls0.mergedWrBursts                    0                       # Number of DRAM write bursts merged with an existing one
system.mem_ctrls0.neitherReadNorWriteReqs            0                       # Number of requests that are neither read nor write
system.mem_ctrls0.perBankRdBursts::0            20397                       # Per bank write bursts
system.mem_ctrls0.perBankRdBursts::1            20975                       # Per bank write bursts
system.mem_ctrls0.perBankRdBursts::2            20437                       # Per bank write bursts
system.mem_ctrls0.perBankRdBursts::3            20920                       # Per bank write bursts
system.mem_ctrls0.perBankRdBursts::4            20491                       # Per bank write bursts
system.mem_ctrls0.perBankRdBursts::5            20982                       # Per bank write bursts
system.mem_ctrls0.perBankRdBursts::6            20641                       # Per bank write bursts
system.mem_ctrls0.perBankRdBursts::7            20739                       # Per bank write bursts
system.mem_ctrls0.perBankRdBursts::8            20621                       # Per bank write bursts
system.mem_ctrls0.perBankRdBursts::9            20914                       # Per bank write bursts
system.mem_ctrls0.perBankRdBursts::10           20651                       # Per bank write bursts
system.mem_ctrls0.perBankRdBursts::11           20922                       # Per bank write bursts
system.mem_ctrls0.perBankRdBursts::12           20295                       # Per bank write bursts
system.mem_ctrls0.perBankRdBursts::13           20211                       # Per bank write bursts
system.mem_ctrls0.perBankRdBursts::14           20435                       # Per bank write bursts
system.mem_ctrls0.perBankRdBursts::15           20421                       # Per bank write bursts
system.mem_ctrls0.perBankWrBursts::0            11520                       # Per bank write bursts
system.mem_ctrls0.perBankWrBursts::1            11658                       # Per bank write bursts
system.mem_ctrls0.perBankWrBursts::2            11670                       # Per bank write bursts
system.mem_ctrls0.perBankWrBursts::3            11654                       # Per bank write bursts
system.mem_ctrls0.perBankWrBursts::4            11599                       # Per bank write bursts
system.mem_ctrls0.perBankWrBursts::5            11914                       # Per bank write bursts
system.mem_ctrls0.perBankWrBursts::6            11571                       # Per bank write bursts
system.mem_ctrls0.perBankWrBursts::7            11677                       # Per bank write bursts
system.mem_ctrls0.perBankWrBursts::8            11890                       # Per bank write bursts
system.mem_ctrls0.perBankWrBursts::9            11719                       # Per bank write bursts
system.mem_ctrls0.perBankWrBursts::10           11521                       # Per bank write bursts
system.mem_ctrls0.perBankWrBursts::11           11696                       # Per bank write bursts
system.mem_ctrls0.perBankWrBursts::12           11358                       # Per bank write bursts
system.mem_ctrls0.perBankWrBursts::13           11314                       # Per bank write bursts
system.mem_ctrls0.perBankWrBursts::14           11754                       # Per bank write bursts
system.mem_ctrls0.perBankWrBursts::15           11599                       # Per bank write bursts
system.mem_ctrls0.numRdRetry                    34967                       # Number of times read queue was full causing retry
system.mem_ctrls0.numWrRetry                     5288                       # Number of times write queue was full causing retry
system.mem_ctrls0.totGap                  91554363500                       # Total gap between requests
system.mem_ctrls0.readPktSize::0                    0                       # Read request sizes (log2)
system.mem_ctrls0.readPktSize::1                    0                       # Read request sizes (log2)
system.mem_ctrls0.readPktSize::2                    0                       # Read request sizes (log2)
system.mem_ctrls0.readPktSize::3                    0                       # Read request sizes (log2)
system.mem_ctrls0.readPktSize::4                    0                       # Read request sizes (log2)
system.mem_ctrls0.readPktSize::5                    0                       # Read request sizes (log2)
system.mem_ctrls0.readPktSize::6               330092                       # Read request sizes (log2)
system.mem_ctrls0.writePktSize::0                   0                       # Write request sizes (log2)
system.mem_ctrls0.writePktSize::1                   0                       # Write request sizes (log2)
system.mem_ctrls0.writePktSize::2                   0                       # Write request sizes (log2)
system.mem_ctrls0.writePktSize::3                   0                       # Write request sizes (log2)
system.mem_ctrls0.writePktSize::4                   0                       # Write request sizes (log2)
system.mem_ctrls0.writePktSize::5                   0                       # Write request sizes (log2)
system.mem_ctrls0.writePktSize::6              186116                       # Write request sizes (log2)
system.mem_ctrls0.rdQLenPdf::0                 133112                       # What read queue length does an incoming req see
system.mem_ctrls0.rdQLenPdf::1                  16511                       # What read queue length does an incoming req see
system.mem_ctrls0.rdQLenPdf::2                  14227                       # What read queue length does an incoming req see
system.mem_ctrls0.rdQLenPdf::3                  12697                       # What read queue length does an incoming req see
system.mem_ctrls0.rdQLenPdf::4                  11884                       # What read queue length does an incoming req see
system.mem_ctrls0.rdQLenPdf::5                  10999                       # What read queue length does an incoming req see
system.mem_ctrls0.rdQLenPdf::6                   9769                       # What read queue length does an incoming req see
system.mem_ctrls0.rdQLenPdf::7                   8823                       # What read queue length does an incoming req see
system.mem_ctrls0.rdQLenPdf::8                   7653                       # What read queue length does an incoming req see
system.mem_ctrls0.rdQLenPdf::9                   6826                       # What read queue length does an incoming req see
system.mem_ctrls0.rdQLenPdf::10                  5970                       # What read queue length does an incoming req see
system.mem_ctrls0.rdQLenPdf::11                  5446                       # What read queue length does an incoming req see
system.mem_ctrls0.rdQLenPdf::12                  5015                       # What read queue length does an incoming req see
system.mem_ctrls0.rdQLenPdf::13                  4524                       # What read queue length does an incoming req see
system.mem_ctrls0.rdQLenPdf::14                  4138                       # What read queue length does an incoming req see
system.mem_ctrls0.rdQLenPdf::15                  3764                       # What read queue length does an incoming req see
system.mem_ctrls0.rdQLenPdf::16                  3299                       # What read queue length does an incoming req see
system.mem_ctrls0.rdQLenPdf::17                  2967                       # What read queue length does an incoming req see
system.mem_ctrls0.rdQLenPdf::18                  2723                       # What read queue length does an incoming req see
system.mem_ctrls0.rdQLenPdf::19                  2587                       # What read queue length does an incoming req see
system.mem_ctrls0.rdQLenPdf::20                  2402                       # What read queue length does an incoming req see
system.mem_ctrls0.rdQLenPdf::21                  2215                       # What read queue length does an incoming req see
system.mem_ctrls0.rdQLenPdf::22                  2034                       # What read queue length does an incoming req see
system.mem_ctrls0.rdQLenPdf::23                  1952                       # What read queue length does an incoming req see
system.mem_ctrls0.rdQLenPdf::24                  1886                       # What read queue length does an incoming req see
system.mem_ctrls0.rdQLenPdf::25                  1695                       # What read queue length does an incoming req see
system.mem_ctrls0.rdQLenPdf::26                  1644                       # What read queue length does an incoming req see
system.mem_ctrls0.rdQLenPdf::27                  1563                       # What read queue length does an incoming req see
system.mem_ctrls0.rdQLenPdf::28                  1595                       # What read queue length does an incoming req see
system.mem_ctrls0.rdQLenPdf::29                  1573                       # What read queue length does an incoming req see
system.mem_ctrls0.rdQLenPdf::30                  1638                       # What read queue length does an incoming req see
system.mem_ctrls0.rdQLenPdf::31                 36921                       # What read queue length does an incoming req see
system.mem_ctrls0.wrQLenPdf::0                  30575                       # What write queue length does an incoming req see
system.mem_ctrls0.wrQLenPdf::1                  32523                       # What write queue length does an incoming req see
system.mem_ctrls0.wrQLenPdf::2                  33393                       # What write queue length does an incoming req see
system.mem_ctrls0.wrQLenPdf::3                  33647                       # What write queue length does an incoming req see
system.mem_ctrls0.wrQLenPdf::4                  33748                       # What write queue length does an incoming req see
system.mem_ctrls0.wrQLenPdf::5                   6703                       # What write queue length does an incoming req see
system.mem_ctrls0.wrQLenPdf::6                   6141                       # What write queue length does an incoming req see
system.mem_ctrls0.wrQLenPdf::7                   9386                       # What write queue length does an incoming req see
system.mem_ctrls0.bytesPerActivate::samples       140439                       # Bytes accessed per row activation
system.mem_ctrls0.bytesPerActivate::mean   235.217625                       # Bytes accessed per row activation
system.mem_ctrls0.bytesPerActivate::gmean   175.179230                       # Bytes accessed per row activation
system.mem_ctrls0.bytesPerActivate::stdev   191.401109                       # Bytes accessed per row activation
system.mem_ctrls0.bytesPerActivate::0-127        39794     28.34%     28.34% # Bytes accessed per row activation
system.mem_ctrls0.bytesPerActivate::128-255        39432     28.08%     56.41% # Bytes accessed per row activation
system.mem_ctrls0.bytesPerActivate::256-383        40151     28.59%     85.00% # Bytes accessed per row activation
system.mem_ctrls0.bytesPerActivate::384-511         7012      4.99%     90.00% # Bytes accessed per row activation
system.mem_ctrls0.bytesPerActivate::512-639         7460      5.31%     95.31% # Bytes accessed per row activation
system.mem_ctrls0.bytesPerActivate::640-767         1995      1.42%     96.73% # Bytes accessed per row activation
system.mem_ctrls0.bytesPerActivate::768-895         1341      0.95%     97.68% # Bytes accessed per row activation
system.mem_ctrls0.bytesPerActivate::896-1023         1080      0.77%     98.45% # Bytes accessed per row activation
system.mem_ctrls0.bytesPerActivate::1024-1151         2174      1.55%    100.00% # Bytes accessed per row activation
system.mem_ctrls0.bytesPerActivate::total       140439                       # Bytes accessed per row activation
system.mem_ctrls0.rdPerTurnAround::samples        31089                       # Reads before turning the bus around for writes
system.mem_ctrls0.rdPerTurnAround::mean     10.616070                       # Reads before turning the bus around for writes
system.mem_ctrls0.rdPerTurnAround::stdev    25.478239                       # Reads before turning the bus around for writes
system.mem_ctrls0.rdPerTurnAround::0-127        31082     99.98%     99.98% # Reads before turning the bus around for writes
system.mem_ctrls0.rdPerTurnAround::128-255            6      0.02%    100.00% # Reads before turning the bus around for writes
system.mem_ctrls0.rdPerTurnAround::3968-4095            1      0.00%    100.00% # Reads before turning the bus around for writes
system.mem_ctrls0.rdPerTurnAround::total        31089                       # Reads before turning the bus around for writes
system.mem_ctrls0.wrPerTurnAround::samples        31089                       # Writes before turning the bus around for reads
system.mem_ctrls0.wrPerTurnAround::mean      5.986490                       # Writes before turning the bus around for reads
system.mem_ctrls0.wrPerTurnAround::gmean     5.689389                       # Writes before turning the bus around for reads
system.mem_ctrls0.wrPerTurnAround::stdev     2.395972                       # Writes before turning the bus around for reads
system.mem_ctrls0.wrPerTurnAround::4-7          26827     86.29%     86.29% # Writes before turning the bus around for reads
system.mem_ctrls0.wrPerTurnAround::8-11          2566      8.25%     94.54% # Writes before turning the bus around for reads
system.mem_ctrls0.wrPerTurnAround::12-15         1007      3.24%     97.78% # Writes before turning the bus around for reads
system.mem_ctrls0.wrPerTurnAround::16-19          689      2.22%    100.00% # Writes before turning the bus around for reads
system.mem_ctrls0.wrPerTurnAround::total        31089                       # Writes before turning the bus around for reads
system.mem_ctrls0.totQLat                 27681957597                       # Total ticks spent queuing
system.mem_ctrls0.totMemAccLat            33870432597                       # Total ticks spent from burst creation until serviced by the DRAM
system.mem_ctrls0.totBusLat                1650260000                       # Total ticks spent in databus transfers
system.mem_ctrls0.avgQLat                    83871.50                       # Average queueing delay per DRAM burst
system.mem_ctrls0.avgBusLat                   5000.00                       # Average bus latency per DRAM burst
system.mem_ctrls0.avgMemAccLat              102621.50                       # Average memory access latency per DRAM burst
system.mem_ctrls0.avgRdBW                      230.72                       # Average DRAM read bandwidth in MiByte/s
system.mem_ctrls0.avgWrBW                      130.10                       # Average achieved write bandwidth in MiByte/s
system.mem_ctrls0.avgRdBWSys                   230.75                       # Average system read bandwidth in MiByte/s
system.mem_ctrls0.avgWrBWSys                   130.10                       # Average system write bandwidth in MiByte/s
system.mem_ctrls0.peakBW                     12800.00                       # Theoretical peak bandwidth in MiByte/s
system.mem_ctrls0.busUtil                        2.82                       # Data bus utilization in percentage
system.mem_ctrls0.busUtilRead                    1.80                       # Data bus utilization in percentage for reads
system.mem_ctrls0.busUtilWrite                   1.02                       # Data bus utilization in percentage for writes
system.mem_ctrls0.avgRdQLen                      1.42                       # Average read queue length when enqueuing
system.mem_ctrls0.avgWrQLen                      2.98                       # Average write queue length when enqueuing
system.mem_ctrls0.readRowHits                  258100                       # Number of row buffer hits during reads
system.mem_ctrls0.writeRowHits                 117616                       # Number of row buffer hits during writes
system.mem_ctrls0.readRowHitRate                78.20                       # Row buffer hit rate for reads
system.mem_ctrls0.writeRowHitRate               63.19                       # Row buffer hit rate for writes
system.mem_ctrls0.avgGap                    177359.44                       # Average gap between requests
system.mem_ctrls0.pageHitRate                   72.79                       # Row buffer hit rate, read and write combined
system.mem_ctrls0.memoryStateTime::IDLE   15196597500                       # Time in different power states
system.mem_ctrls0.memoryStateTime::REF     3057080000                       # Time in different power states
system.mem_ctrls0.memoryStateTime::PRE_PDN            0                       # Time in different power states
system.mem_ctrls0.memoryStateTime::ACT    73298057500                       # Time in different power states
system.mem_ctrls0.memoryStateTime::ACT_PDN            0                       # Time in different power states
system.mem_ctrls0.actEnergy::0              534696120                       # Energy for activate commands per rank (pJ)
system.mem_ctrls0.actEnergy::1              526962240                       # Energy for activate commands per rank (pJ)
system.mem_ctrls0.preEnergy::0              291748875                       # Energy for precharge commands per rank (pJ)
system.mem_ctrls0.preEnergy::1              287529000                       # Energy for precharge commands per rank (pJ)
system.mem_ctrls0.readEnergy::0            1291446000                       # Energy for read commands per rank (pJ)
system.mem_ctrls0.readEnergy::1            1282803600                       # Energy for read commands per rank (pJ)
system.mem_ctrls0.writeEnergy::0            604324800                       # Energy for write commands per rank (pJ)
system.mem_ctrls0.writeEnergy::1            601661520                       # Energy for write commands per rank (pJ)
system.mem_ctrls0.refreshEnergy::0         5979648480                       # Energy for refresh commands per rank (pJ)
system.mem_ctrls0.refreshEnergy::1         5979648480                       # Energy for refresh commands per rank (pJ)
system.mem_ctrls0.actBackEnergy::0        37679704650                       # Energy for active background per rank (pJ)
system.mem_ctrls0.actBackEnergy::1        36964013220                       # Energy for active background per rank (pJ)
system.mem_ctrls0.preBackEnergy::0        21878220000                       # Energy for precharge background per rank (pJ)
system.mem_ctrls0.preBackEnergy::1        22506019500                       # Energy for precharge background per rank (pJ)
system.mem_ctrls0.totalEnergy::0          68259788925                       # Total energy per rank (pJ)
system.mem_ctrls0.totalEnergy::1          68148637560                       # Total energy per rank (pJ)
system.mem_ctrls0.averagePower::0          745.593147                       # Core power per rank (mW)
system.mem_ctrls0.averagePower::1          744.379055                       # Core power per rank (mW)
system.mem_ctrls1.bytes_read::ruby.dir_cntrl1     20697600                       # Number of bytes read from this memory
system.mem_ctrls1.bytes_read::total          20697600                       # Number of bytes read from this memory
system.mem_ctrls1.bytes_written::ruby.dir_cntrl1     11492928                       # Number of bytes written to this memory
system.mem_ctrls1.bytes_written::total       11492928                       # Number of bytes written to this memory
system.mem_ctrls1.num_reads::ruby.dir_cntrl1       323400                       # Number of read requests responded to by this memory
system.mem_ctrls1.num_reads::total             323400                       # Number of read requests responded to by this memory
system.mem_ctrls1.num_writes::ruby.dir_cntrl1       179577                       # Number of write requests responded to by this memory
system.mem_ctrls1.num_writes::total            179577                       # Number of write requests responded to by this memory
system.mem_ctrls1.bw_read::ruby.dir_cntrl1    226067571                       # Total read bandwidth from this memory (bytes/s)
system.mem_ctrls1.bw_read::total            226067571                       # Total read bandwidth from this memory (bytes/s)
system.mem_ctrls1.bw_write::ruby.dir_cntrl1    125530415                       # Write bandwidth from this memory (bytes/s)
system.mem_ctrls1.bw_write::total           125530415                       # Write bandwidth from this memory (bytes/s)
system.mem_ctrls1.bw_total::ruby.dir_cntrl1    351597987                       # Total bandwidth to/from this memory (bytes/s)
system.mem_ctrls1.bw_total::total           351597987                       # Total bandwidth to/from this memory (bytes/s)
system.mem_ctrls1.readReqs                     323400                       # Number of read requests accepted
system.mem_ctrls1.writeReqs                    179577                       # Number of write requests accepted
system.mem_ctrls1.readBursts                   323400                       # Number of DRAM read bursts, including those serviced by the write queue
system.mem_ctrls1.writeBursts                  179577                       # Number of DRAM write bursts, including those merged in the write queue
system.mem_ctrls1.bytesReadDRAM              20695680                       # Total number of bytes read from DRAM
system.mem_ctrls1.bytesReadWrQ                   1920                       # Total number of bytes read from write queue
system.mem_ctrls1.bytesWritten               11492672                       # Total number of bytes written to DRAM
system.mem_ctrls1.bytesReadSys               20697600                       # Total read bytes from the system interface side
system.mem_ctrls1.bytesWrittenSys            11492928                       # Total written bytes from the system interface side
system.mem_ctrls1.servicedByWrQ                    30                       # Number of DRAM read bursts serviced by the write queue
system.mem_ctrls1.mergedWrBursts                    0                       # Number of DRAM write bursts merged with an existing one
system.mem_ctrls1.neitherReadNorWriteReqs            0                       # Number of requests that are neither read nor write
system.mem_ctrls1.perBankRdBursts::0            19979                       # Per bank write bursts
system.mem_ctrls1.perBankRdBursts::1            20549                       # Per bank write bursts
system.mem_ctrls1.perBankRdBursts::2            20046                       # Per bank write bursts
system.mem_ctrls1.perBankRdBursts::3            20472                       # Per bank write bursts
system.mem_ctrls1.perBankRdBursts::4            20141                       # Per bank write bursts
system.mem_ctrls1.perBankRdBursts::5            20528                       # Per bank write bursts
system.mem_ctrls1.perBankRdBursts::6            20241                       # Per bank write bursts
system.mem_ctrls1.perBankRdBursts::7            20408                       # Per bank write bursts
system.mem_ctrls1.perBankRdBursts::8            20210                       # Per bank write bursts
system.mem_ctrls1.perBankRdBursts::9            20472                       # Per bank write bursts
system.mem_ctrls1.perBankRdBursts::10           20228                       # Per bank write bursts
system.mem_ctrls1.perBankRdBursts::11           20540                       # Per bank write bursts
system.mem_ctrls1.perBankRdBursts::12           19829                       # Per bank write bursts
system.mem_ctrls1.perBankRdBursts::13           19762                       # Per bank write bursts
system.mem_ctrls1.perBankRdBursts::14           19940                       # Per bank write bursts
system.mem_ctrls1.perBankRdBursts::15           20025                       # Per bank write bursts
system.mem_ctrls1.perBankWrBursts::0            11112                       # Per bank write bursts
system.mem_ctrls1.perBankWrBursts::1            11263                       # Per bank write bursts
system.mem_ctrls1.perBankWrBursts::2            11267                       # Per bank write bursts
system.mem_ctrls1.perBankWrBursts::3            11250                       # Per bank write bursts
system.mem_ctrls1.perBankWrBursts::4            11208                       # Per bank write bursts
system.mem_ctrls1.perBankWrBursts::5            11515                       # Per bank write bursts
system.mem_ctrls1.perBankWrBursts::6            11158                       # Per bank write bursts
system.mem_ctrls1.perBankWrBursts::7            11260                       # Per bank write bursts
system.mem_ctrls1.perBankWrBursts::8            11467                       # Per bank write bursts
system.mem_ctrls1.perBankWrBursts::9            11290                       # Per bank write bursts
system.mem_ctrls1.perBankWrBursts::10           11117                       # Per bank write bursts
system.mem_ctrls1.perBankWrBursts::11           11288                       # Per bank write bursts
system.mem_ctrls1.perBankWrBursts::12           10966                       # Per bank write bursts
system.mem_ctrls1.perBankWrBursts::13           10914                       # Per bank write bursts
system.mem_ctrls1.perBankWrBursts::14           11299                       # Per bank write bursts
system.mem_ctrls1.perBankWrBursts::15           11199                       # Per bank write bursts
system.mem_ctrls1.numRdRetry                    32761                       # Number of times read queue was full causing retry
system.mem_ctrls1.numWrRetry                     5049                       # Number of times write queue was full causing retry
system.mem_ctrls1.totGap                  91554093000                       # Total gap between requests
system.mem_ctrls1.readPktSize::0                    0                       # Read request sizes (log2)
system.mem_ctrls1.readPktSize::1                    0                       # Read request sizes (log2)
system.mem_ctrls1.readPktSize::2                    0                       # Read request sizes (log2)
system.mem_ctrls1.readPktSize::3                    0                       # Read request sizes (log2)
system.mem_ctrls1.readPktSize::4                    0                       # Read request sizes (log2)
system.mem_ctrls1.readPktSize::5                    0                       # Read request sizes (log2)
system.mem_ctrls1.readPktSize::6               323400                       # Read request sizes (log2)
system.mem_ctrls1.writePktSize::0                   0                       # Write request sizes (log2)
system.mem_ctrls1.writePktSize::1                   0                       # Write request sizes (log2)
system.mem_ctrls1.writePktSize::2                   0                       # Write request sizes (log2)
system.mem_ctrls1.writePktSize::3                   0                       # Write request sizes (log2)
system.mem_ctrls1.writePktSize::4                   0                       # Write request sizes (log2)
system.mem_ctrls1.writePktSize::5                   0                       # Write request sizes (log2)
system.mem_ctrls1.writePktSize::6              179577                       # Write request sizes (log2)
system.mem_ctrls1.rdQLenPdf::0                 130306                       # What read queue length does an incoming req see
system.mem_ctrls1.rdQLenPdf::1                  14100                       # What read queue length does an incoming req see
system.mem_ctrls1.rdQLenPdf::2                  13682                       # What read queue length does an incoming req see
system.mem_ctrls1.rdQLenPdf::3                  12817                       # What read queue length does an incoming req see
system.mem_ctrls1.rdQLenPdf::4                  11901                       # What read queue length does an incoming req see
system.mem_ctrls1.rdQLenPdf::5                  11119                       # What read queue length does an incoming req see
system.mem_ctrls1.rdQLenPdf::6                   9977                       # What read queue length does an incoming req see
system.mem_ctrls1.rdQLenPdf::7                   9020                       # What read queue length does an incoming req see
system.mem_ctrls1.rdQLenPdf::8                   7654                       # What read queue length does an incoming req see
system.mem_ctrls1.rdQLenPdf::9                   6747                       # What read queue length does an incoming req see
system.mem_ctrls1.rdQLenPdf::10                  6063                       # What read queue length does an incoming req see
system.mem_ctrls1.rdQLenPdf::11                  5522                       # What read queue length does an incoming req see
system.mem_ctrls1.rdQLenPdf::12                  5023                       # What read queue length does an incoming req see
system.mem_ctrls1.rdQLenPdf::13                  4648                       # What read queue length does an incoming req see
system.mem_ctrls1.rdQLenPdf::14                  4125                       # What read queue length does an incoming req see
system.mem_ctrls1.rdQLenPdf::15                  3734                       # What read queue length does an incoming req see
system.mem_ctrls1.rdQLenPdf::16                  3376                       # What read queue length does an incoming req see
system.mem_ctrls1.rdQLenPdf::17                  3121                       # What read queue length does an incoming req see
system.mem_ctrls1.rdQLenPdf::18                  2932                       # What read queue length does an incoming req see
system.mem_ctrls1.rdQLenPdf::19                  2640                       # What read queue length does an incoming req see
system.mem_ctrls1.rdQLenPdf::20                  2435                       # What read queue length does an incoming req see
system.mem_ctrls1.rdQLenPdf::21                  2267                       # What read queue length does an incoming req see
system.mem_ctrls1.rdQLenPdf::22                  2102                       # What read queue length does an incoming req see
system.mem_ctrls1.rdQLenPdf::23                  2003                       # What read queue length does an incoming req see
system.mem_ctrls1.rdQLenPdf::24                  1810                       # What read queue length does an incoming req see
system.mem_ctrls1.rdQLenPdf::25                  1702                       # What read queue length does an incoming req see
system.mem_ctrls1.rdQLenPdf::26                  1666                       # What read queue length does an incoming req see
system.mem_ctrls1.rdQLenPdf::27                  1563                       # What read queue length does an incoming req see
system.mem_ctrls1.rdQLenPdf::28                  1572                       # What read queue length does an incoming req see
system.mem_ctrls1.rdQLenPdf::29                  1589                       # What read queue length does an incoming req see
system.mem_ctrls1.rdQLenPdf::30                  1594                       # What read queue length does an incoming req see
system.mem_ctrls1.rdQLenPdf::31                 34560                       # What read queue length does an incoming req see
system.mem_ctrls1.wrQLenPdf::0                  29433                       # What write queue length does an incoming req see
system.mem_ctrls1.wrQLenPdf::1                  31165                       # What write queue length does an incoming req see
system.mem_ctrls1.wrQLenPdf::2                  32036                       # What write queue length does an incoming req see
system.mem_ctrls1.wrQLenPdf::3                  32582                       # What write queue length does an incoming req see
system.mem_ctrls1.wrQLenPdf::4                  32684                       # What write queue length does an incoming req see
system.mem_ctrls1.wrQLenPdf::5                   6525                       # What write queue length does an incoming req see
system.mem_ctrls1.wrQLenPdf::6                   5997                       # What write queue length does an incoming req see
system.mem_ctrls1.wrQLenPdf::7                   9155                       # What write queue length does an incoming req see
system.mem_ctrls1.bytesPerActivate::samples       131026                       # Bytes accessed per row activation
system.mem_ctrls1.bytesPerActivate::mean   245.658480                       # Bytes accessed per row activation
system.mem_ctrls1.bytesPerActivate::gmean   183.017319                       # Bytes accessed per row activation
system.mem_ctrls1.bytesPerActivate::stdev   196.733402                       # Bytes accessed per row activation
system.mem_ctrls1.bytesPerActivate::0-127        35099     26.79%     26.79% # Bytes accessed per row activation
system.mem_ctrls1.bytesPerActivate::128-255        34556     26.37%     53.16% # Bytes accessed per row activation
system.mem_ctrls1.bytesPerActivate::256-383        40075     30.59%     83.75% # Bytes accessed per row activation
system.mem_ctrls1.bytesPerActivate::384-511         6976      5.32%     89.07% # Bytes accessed per row activation
system.mem_ctrls1.bytesPerActivate::512-639         7343      5.60%     94.68% # Bytes accessed per row activation
system.mem_ctrls1.bytesPerActivate::640-767         2185      1.67%     96.34% # Bytes accessed per row activation
system.mem_ctrls1.bytesPerActivate::768-895         1462      1.12%     97.46% # Bytes accessed per row activation
system.mem_ctrls1.bytesPerActivate::896-1023         1088      0.83%     98.29% # Bytes accessed per row activation
system.mem_ctrls1.bytesPerActivate::1024-1151         2242      1.71%    100.00% # Bytes accessed per row activation
system.mem_ctrls1.bytesPerActivate::total       131026                       # Bytes accessed per row activation
system.mem_ctrls1.rdPerTurnAround::samples        29929                       # Reads before turning the bus around for writes
system.mem_ctrls1.rdPerTurnAround::mean     10.803702                       # Reads before turning the bus around for writes
system.mem_ctrls1.rdPerTurnAround::stdev    21.628666                       # Reads before turning the bus around for writes
system.mem_ctrls1.rdPerTurnAround::0-127        29921     99.97%     99.97% # Reads before turning the bus around for writes
system.mem_ctrls1.rdPerTurnAround::128-255            6      0.02%     99.99% # Reads before turning the bus around for writes
system.mem_ctrls1.rdPerTurnAround::1152-1279            1      0.00%    100.00% # Reads before turning the bus around for writes
system.mem_ctrls1.rdPerTurnAround::2816-2943            1      0.00%    100.00% # Reads before turning the bus around for writes
system.mem_ctrls1.rdPerTurnAround::total        29929                       # Reads before turning the bus around for writes
system.mem_ctrls1.wrPerTurnAround::samples        29929                       # Writes before turning the bus around for reads
system.mem_ctrls1.wrPerTurnAround::mean      5.999967                       # Writes before turning the bus around for reads
system.mem_ctrls1.wrPerTurnAround::gmean     5.695030                       # Writes before turning the bus around for reads
system.mem_ctrls1.wrPerTurnAround::stdev     2.426664                       # Writes before turning the bus around for reads
system.mem_ctrls1.wrPerTurnAround::4-7          25703     85.88%     85.88% # Writes before turning the bus around for reads
system.mem_ctrls1.wrPerTurnAround::8-11          2502      8.36%     94.24% # Writes before turning the bus around for reads
system.mem_ctrls1.wrPerTurnAround::12-15         1044      3.49%     97.73% # Writes before turning the bus around for reads
system.mem_ctrls1.wrPerTurnAround::16-19          680      2.27%    100.00% # Writes before turning the bus around for reads
system.mem_ctrls1.wrPerTurnAround::total        29929                       # Writes before turning the bus around for reads
system.mem_ctrls1.totQLat                 26790241316                       # Total ticks spent queuing
system.mem_ctrls1.totMemAccLat            32853428816                       # Total ticks spent from burst creation until serviced by the DRAM
system.mem_ctrls1.totBusLat                1616850000                       # Total ticks spent in databus transfers
system.mem_ctrls1.avgQLat                    82847.02                       # Average queueing delay per DRAM burst
system.mem_ctrls1.avgBusLat                   5000.00                       # Average bus latency per DRAM burst
system.mem_ctrls1.avgMemAccLat              101597.02                       # Average memory access latency per DRAM burst
system.mem_ctrls1.avgRdBW                      226.05                       # Average DRAM read bandwidth in MiByte/s
system.mem_ctrls1.avgWrBW                      125.53                       # Average achieved write bandwidth in MiByte/s
system.mem_ctrls1.avgRdBWSys                   226.07                       # Average system read bandwidth in MiByte/s
system.mem_ctrls1.avgWrBWSys                   125.53                       # Average system write bandwidth in MiByte/s
system.mem_ctrls1.peakBW                     12800.00                       # Theoretical peak bandwidth in MiByte/s
system.mem_ctrls1.busUtil                        2.75                       # Data bus utilization in percentage
system.mem_ctrls1.busUtilRead                    1.77                       # Data bus utilization in percentage for reads
system.mem_ctrls1.busUtilWrite                   0.98                       # Data bus utilization in percentage for writes
system.mem_ctrls1.avgRdQLen                      1.40                       # Average read queue length when enqueuing
system.mem_ctrls1.avgWrQLen                      2.99                       # Average write queue length when enqueuing
system.mem_ctrls1.readRowHits                  255085                       # Number of row buffer hits during reads
system.mem_ctrls1.writeRowHits                 116825                       # Number of row buffer hits during writes
system.mem_ctrls1.readRowHitRate                78.88                       # Row buffer hit rate for reads
system.mem_ctrls1.writeRowHitRate               65.06                       # Row buffer hit rate for writes
system.mem_ctrls1.avgGap                    182024.41                       # Average gap between requests
system.mem_ctrls1.pageHitRate                   73.95                       # Row buffer hit rate, read and write combined
system.mem_ctrls1.memoryStateTime::IDLE   15396856000                       # Time in different power states
system.mem_ctrls1.memoryStateTime::REF     3057080000                       # Time in different power states
system.mem_ctrls1.memoryStateTime::PRE_PDN            0                       # Time in different power states
system.mem_ctrls1.memoryStateTime::ACT    73097812500                       # Time in different power states
system.mem_ctrls1.memoryStateTime::ACT_PDN            0                       # Time in different power states
system.mem_ctrls1.actEnergy::0              499587480                       # Energy for activate commands per rank (pJ)
system.mem_ctrls1.actEnergy::1              490953960                       # Energy for activate commands per rank (pJ)
system.mem_ctrls1.preEnergy::0              272592375                       # Energy for precharge commands per rank (pJ)
system.mem_ctrls1.preEnergy::1              267881625                       # Energy for precharge commands per rank (pJ)
system.mem_ctrls1.readEnergy::0            1266345600                       # Energy for read commands per rank (pJ)
system.mem_ctrls1.readEnergy::1            1255807800                       # Energy for read commands per rank (pJ)
system.mem_ctrls1.writeEnergy::0            583413840                       # Energy for write commands per rank (pJ)
system.mem_ctrls1.writeEnergy::1            580219200                       # Energy for write commands per rank (pJ)
system.mem_ctrls1.refreshEnergy::0         5979648480                       # Energy for refresh commands per rank (pJ)
system.mem_ctrls1.refreshEnergy::1         5979648480                       # Energy for refresh commands per rank (pJ)
system.mem_ctrls1.actBackEnergy::0        37172158695                       # Energy for active background per rank (pJ)
system.mem_ctrls1.actBackEnergy::1        36215629155                       # Energy for active background per rank (pJ)
system.mem_ctrls1.preBackEnergy::0        22323435750                       # Energy for precharge background per rank (pJ)
system.mem_ctrls1.preBackEnergy::1        23162496750                       # Energy for precharge background per rank (pJ)
system.mem_ctrls1.totalEnergy::0          68097182220                       # Total energy per rank (pJ)
system.mem_ctrls1.totalEnergy::1          67952636970                       # Total energy per rank (pJ)
system.mem_ctrls1.averagePower::0          743.817015                       # Core power per rank (mW)
system.mem_ctrls1.averagePower::1          742.238165                       # Core power per rank (mW)
system.mem_ctrls2.bytes_read::ruby.dir_cntrl2     20692224                       # Number of bytes read from this memory
system.mem_ctrls2.bytes_read::total          20692224                       # Number of bytes read from this memory
system.mem_ctrls2.bytes_written::ruby.dir_cntrl2     11495168                       # Number of bytes written to this memory
system.mem_ctrls2.bytes_written::total       11495168                       # Number of bytes written to this memory
system.mem_ctrls2.num_reads::ruby.dir_cntrl2       323316                       # Number of read requests responded to by this memory
system.mem_ctrls2.num_reads::total             323316                       # Number of read requests responded to by this memory
system.mem_ctrls2.num_writes::ruby.dir_cntrl2       179612                       # Number of write requests responded to by this memory
system.mem_ctrls2.num_writes::total            179612                       # Number of write requests responded to by this memory
system.mem_ctrls2.bw_read::ruby.dir_cntrl2    226008853                       # Total read bandwidth from this memory (bytes/s)
system.mem_ctrls2.bw_read::total            226008853                       # Total read bandwidth from this memory (bytes/s)
system.mem_ctrls2.bw_write::ruby.dir_cntrl2    125554881                       # Write bandwidth from this memory (bytes/s)
system.mem_ctrls2.bw_write::total           125554881                       # Write bandwidth from this memory (bytes/s)
system.mem_ctrls2.bw_total::ruby.dir_cntrl2    351563734                       # Total bandwidth to/from this memory (bytes/s)
system.mem_ctrls2.bw_total::total           351563734                       # Total bandwidth to/from this memory (bytes/s)
system.mem_ctrls2.readReqs                     323316                       # Number of read requests accepted
system.mem_ctrls2.writeReqs                    179612                       # Number of write requests accepted
system.mem_ctrls2.readBursts                   323316                       # Number of DRAM read bursts, including those serviced by the write queue
system.mem_ctrls2.writeBursts                  179612                       # Number of DRAM write bursts, including those merged in the write queue
system.mem_ctrls2.bytesReadDRAM              20691264                       # Total number of bytes read from DRAM
system.mem_ctrls2.bytesReadWrQ                    960                       # Total number of bytes read from write queue
system.mem_ctrls2.bytesWritten               11495040                       # Total number of bytes written to DRAM
system.mem_ctrls2.bytesReadSys               20692224                       # Total read bytes from the system interface side
system.mem_ctrls2.bytesWrittenSys            11495168                       # Total written bytes from the system interface side
system.mem_ctrls2.servicedByWrQ                    15                       # Number of DRAM read bursts serviced by the write queue
system.mem_ctrls2.mergedWrBursts                    0                       # Number of DRAM write bursts merged with an existing one
system.mem_ctrls2.neitherReadNorWriteReqs            0                       # Number of requests that are neither read nor write
system.mem_ctrls2.perBankRdBursts::0            19934                       # Per bank write bursts
system.mem_ctrls2.perBankRdBursts::1            20542                       # Per bank write bursts
system.mem_ctrls2.perBankRdBursts::2            20097                       # Per bank write bursts
system.mem_ctrls2.perBankRdBursts::3            20437                       # Per bank write bursts
system.mem_ctrls2.perBankRdBursts::4            20126                       # Per bank write bursts
system.mem_ctrls2.perBankRdBursts::5            20563                       # Per bank write bursts
system.mem_ctrls2.perBankRdBursts::6            20185                       # Per bank write bursts
system.mem_ctrls2.perBankRdBursts::7            20362                       # Per bank write bursts
system.mem_ctrls2.perBankRdBursts::8            20223                       # Per bank write bursts
system.mem_ctrls2.perBankRdBursts::9            20484                       # Per bank write bursts
system.mem_ctrls2.perBankRdBursts::10           20194                       # Per bank write bursts
system.mem_ctrls2.perBankRdBursts::11           20622                       # Per bank write bursts
system.mem_ctrls2.perBankRdBursts::12           19859                       # Per bank write bursts
system.mem_ctrls2.perBankRdBursts::13           19665                       # Per bank write bursts
system.mem_ctrls2.perBankRdBursts::14           19956                       # Per bank write bursts
system.mem_ctrls2.perBankRdBursts::15           20052                       # Per bank write bursts
system.mem_ctrls2.perBankWrBursts::0            11126                       # Per bank write bursts
system.mem_ctrls2.perBankWrBursts::1            11265                       # Per bank write bursts
system.mem_ctrls2.perBankWrBursts::2            11262                       # Per bank write bursts
system.mem_ctrls2.perBankWrBursts::3            11284                       # Per bank write bursts
system.mem_ctrls2.perBankWrBursts::4            11205                       # Per bank write bursts
system.mem_ctrls2.perBankWrBursts::5            11488                       # Per bank write bursts
system.mem_ctrls2.perBankWrBursts::6            11173                       # Per bank write bursts
system.mem_ctrls2.perBankWrBursts::7            11261                       # Per bank write bursts
system.mem_ctrls2.perBankWrBursts::8            11447                       # Per bank write bursts
system.mem_ctrls2.perBankWrBursts::9            11305                       # Per bank write bursts
system.mem_ctrls2.perBankWrBursts::10           11117                       # Per bank write bursts
system.mem_ctrls2.perBankWrBursts::11           11303                       # Per bank write bursts
system.mem_ctrls2.perBankWrBursts::12           10961                       # Per bank write bursts
system.mem_ctrls2.perBankWrBursts::13           10914                       # Per bank write bursts
system.mem_ctrls2.perBankWrBursts::14           11295                       # Per bank write bursts
system.mem_ctrls2.perBankWrBursts::15           11204                       # Per bank write bursts
system.mem_ctrls2.numRdRetry                    35548                       # Number of times read queue was full causing retry
system.mem_ctrls2.numWrRetry                     5472                       # Number of times write queue was full causing retry
system.mem_ctrls2.totGap                  91554785500                       # Total gap between requests
system.mem_ctrls2.readPktSize::0                    0                       # Read request sizes (log2)
system.mem_ctrls2.readPktSize::1                    0                       # Read request sizes (log2)
system.mem_ctrls2.readPktSize::2                    0                       # Read request sizes (log2)
system.mem_ctrls2.readPktSize::3                    0                       # Read request sizes (log2)
system.mem_ctrls2.readPktSize::4                    0                       # Read request sizes (log2)
system.mem_ctrls2.readPktSize::5                    0                       # Read request sizes (log2)
system.mem_ctrls2.readPktSize::6               323316                       # Read request sizes (log2)
system.mem_ctrls2.writePktSize::0                   0                       # Write request sizes (log2)
system.mem_ctrls2.writePktSize::1                   0                       # Write request sizes (log2)
system.mem_ctrls2.writePktSize::2                   0                       # Write request sizes (log2)
system.mem_ctrls2.writePktSize::3                   0                       # Write request sizes (log2)
system.mem_ctrls2.writePktSize::4                   0                       # Write request sizes (log2)
system.mem_ctrls2.writePktSize::5                   0                       # Write request sizes (log2)
system.mem_ctrls2.writePktSize::6              179612                       # Write request sizes (log2)
system.mem_ctrls2.rdQLenPdf::0                 130490                       # What read queue length does an incoming req see
system.mem_ctrls2.rdQLenPdf::1                  13842                       # What read queue length does an incoming req see
system.mem_ctrls2.rdQLenPdf::2                  13425                       # What read queue length does an incoming req see
system.mem_ctrls2.rdQLenPdf::3                  12388                       # What read queue length does an incoming req see
system.mem_ctrls2.rdQLenPdf::4                  11373                       # What read queue length does an incoming req see
system.mem_ctrls2.rdQLenPdf::5                  10678                       # What read queue length does an incoming req see
system.mem_ctrls2.rdQLenPdf::6                   9707                       # What read queue length does an incoming req see
system.mem_ctrls2.rdQLenPdf::7                   8927                       # What read queue length does an incoming req see
system.mem_ctrls2.rdQLenPdf::8                   7677                       # What read queue length does an incoming req see
system.mem_ctrls2.rdQLenPdf::9                   6861                       # What read queue length does an incoming req see
system.mem_ctrls2.rdQLenPdf::10                  6159                       # What read queue length does an incoming req see
system.mem_ctrls2.rdQLenPdf::11                  5586                       # What read queue length does an incoming req see
system.mem_ctrls2.rdQLenPdf::12                  4848                       # What read queue length does an incoming req see
system.mem_ctrls2.rdQLenPdf::13                  4462                       # What read queue length does an incoming req see
system.mem_ctrls2.rdQLenPdf::14                  3968                       # What read queue length does an incoming req see
system.mem_ctrls2.rdQLenPdf::15                  3608                       # What read queue length does an incoming req see
system.mem_ctrls2.rdQLenPdf::16                  3334                       # What read queue length does an incoming req see
system.mem_ctrls2.rdQLenPdf::17                  2988                       # What read queue length does an incoming req see
system.mem_ctrls2.rdQLenPdf::18                  2822                       # What read queue length does an incoming req see
system.mem_ctrls2.rdQLenPdf::19                  2573                       # What read queue length does an incoming req see
system.mem_ctrls2.rdQLenPdf::20                  2381                       # What read queue length does an incoming req see
system.mem_ctrls2.rdQLenPdf::21                  2157                       # What read queue length does an incoming req see
system.mem_ctrls2.rdQLenPdf::22                  2105                       # What read queue length does an incoming req see
system.mem_ctrls2.rdQLenPdf::23                  1896                       # What read queue length does an incoming req see
system.mem_ctrls2.rdQLenPdf::24                  1854                       # What read queue length does an incoming req see
system.mem_ctrls2.rdQLenPdf::25                  1718                       # What read queue length does an incoming req see
system.mem_ctrls2.rdQLenPdf::26                  1658                       # What read queue length does an incoming req see
system.mem_ctrls2.rdQLenPdf::27                  1618                       # What read queue length does an incoming req see
system.mem_ctrls2.rdQLenPdf::28                  1588                       # What read queue length does an incoming req see
system.mem_ctrls2.rdQLenPdf::29                  1598                       # What read queue length does an incoming req see
system.mem_ctrls2.rdQLenPdf::30                  1637                       # What read queue length does an incoming req see
system.mem_ctrls2.rdQLenPdf::31                 37375                       # What read queue length does an incoming req see
system.mem_ctrls2.wrQLenPdf::0                  29346                       # What write queue length does an incoming req see
system.mem_ctrls2.wrQLenPdf::1                  30991                       # What write queue length does an incoming req see
system.mem_ctrls2.wrQLenPdf::2                  31756                       # What write queue length does an incoming req see
system.mem_ctrls2.wrQLenPdf::3                  32333                       # What write queue length does an incoming req see
system.mem_ctrls2.wrQLenPdf::4                  32650                       # What write queue length does an incoming req see
system.mem_ctrls2.wrQLenPdf::5                   6635                       # What write queue length does an incoming req see
system.mem_ctrls2.wrQLenPdf::6                   6208                       # What write queue length does an incoming req see
system.mem_ctrls2.wrQLenPdf::7                   9693                       # What write queue length does an incoming req see
system.mem_ctrls2.bytesPerActivate::samples       131243                       # Bytes accessed per row activation
system.mem_ctrls2.bytesPerActivate::mean   245.238161                       # Bytes accessed per row activation
system.mem_ctrls2.bytesPerActivate::gmean   182.843595                       # Bytes accessed per row activation
system.mem_ctrls2.bytesPerActivate::stdev   195.900741                       # Bytes accessed per row activation
system.mem_ctrls2.bytesPerActivate::0-127        35297     26.89%     26.89% # Bytes accessed per row activation
system.mem_ctrls2.bytesPerActivate::128-255        34242     26.09%     52.98% # Bytes accessed per row activation
system.mem_ctrls2.bytesPerActivate::256-383        40371     30.76%     83.75% # Bytes accessed per row activation
system.mem_ctrls2.bytesPerActivate::384-511         6991      5.33%     89.07% # Bytes accessed per row activation
system.mem_ctrls2.bytesPerActivate::512-639         7577      5.77%     94.85% # Bytes accessed per row activation
system.mem_ctrls2.bytesPerActivate::640-767         2052      1.56%     96.41% # Bytes accessed per row activation
system.mem_ctrls2.bytesPerActivate::768-895         1384      1.05%     97.46% # Bytes accessed per row activation
system.mem_ctrls2.bytesPerActivate::896-1023         1129      0.86%     98.32% # Bytes accessed per row activation
system.mem_ctrls2.bytesPerActivate::1024-1151         2200      1.68%    100.00% # Bytes accessed per row activation
system.mem_ctrls2.bytesPerActivate::total       131243                       # Bytes accessed per row activation
system.mem_ctrls2.rdPerTurnAround::samples        29871                       # Reads before turning the bus around for writes
system.mem_ctrls2.rdPerTurnAround::mean     10.822704                       # Reads before turning the bus around for writes
system.mem_ctrls2.rdPerTurnAround::stdev    21.683920                       # Reads before turning the bus around for writes
system.mem_ctrls2.rdPerTurnAround::0-127        29866     99.98%     99.98% # Reads before turning the bus around for writes
system.mem_ctrls2.rdPerTurnAround::128-255            3      0.01%     99.99% # Reads before turning the bus around for writes
system.mem_ctrls2.rdPerTurnAround::1152-1279            1      0.00%    100.00% # Reads before turning the bus around for writes
system.mem_ctrls2.rdPerTurnAround::2816-2943            1      0.00%    100.00% # Reads before turning the bus around for writes
system.mem_ctrls2.rdPerTurnAround::total        29871                       # Reads before turning the bus around for writes
system.mem_ctrls2.wrPerTurnAround::samples        29871                       # Writes before turning the bus around for reads
system.mem_ctrls2.wrPerTurnAround::mean      6.012855                       # Writes before turning the bus around for reads
system.mem_ctrls2.wrPerTurnAround::gmean     5.703369                       # Writes before turning the bus around for reads
system.mem_ctrls2.wrPerTurnAround::stdev     2.444229                       # Writes before turning the bus around for reads
system.mem_ctrls2.wrPerTurnAround::4-7          25578     85.63%     85.63% # Writes before turning the bus around for reads
system.mem_ctrls2.wrPerTurnAround::8-11          2559      8.57%     94.20% # Writes before turning the bus around for reads
system.mem_ctrls2.wrPerTurnAround::12-15         1047      3.51%     97.70% # Writes before turning the bus around for reads
system.mem_ctrls2.wrPerTurnAround::16-19          687      2.30%    100.00% # Writes before turning the bus around for reads
system.mem_ctrls2.wrPerTurnAround::total        29871                       # Writes before turning the bus around for reads
system.mem_ctrls2.totQLat                 27479881906                       # Total ticks spent queuing
system.mem_ctrls2.totMemAccLat            33541775656                       # Total ticks spent from burst creation until serviced by the DRAM
system.mem_ctrls2.totBusLat                1616505000                       # Total ticks spent in databus transfers
system.mem_ctrls2.avgQLat                    84997.83                       # Average queueing delay per DRAM burst
system.mem_ctrls2.avgBusLat                   5000.00                       # Average bus latency per DRAM burst
system.mem_ctrls2.avgMemAccLat              103747.83                       # Average memory access latency per DRAM burst
system.mem_ctrls2.avgRdBW                      226.00                       # Average DRAM read bandwidth in MiByte/s
system.mem_ctrls2.avgWrBW                      125.55                       # Average achieved write bandwidth in MiByte/s
system.mem_ctrls2.avgRdBWSys                   226.01                       # Average system read bandwidth in MiByte/s
system.mem_ctrls2.avgWrBWSys                   125.55                       # Average system write bandwidth in MiByte/s
system.mem_ctrls2.peakBW                     12800.00                       # Theoretical peak bandwidth in MiByte/s
system.mem_ctrls2.busUtil                        2.75                       # Data bus utilization in percentage
system.mem_ctrls2.busUtilRead                    1.77                       # Data bus utilization in percentage for reads
system.mem_ctrls2.busUtilWrite                   0.98                       # Data bus utilization in percentage for writes
system.mem_ctrls2.avgRdQLen                      1.41                       # Average read queue length when enqueuing
system.mem_ctrls2.avgWrQLen                      3.00                       # Average write queue length when enqueuing
system.mem_ctrls2.readRowHits                  254725                       # Number of row buffer hits during reads
system.mem_ctrls2.writeRowHits                 116936                       # Number of row buffer hits during writes
system.mem_ctrls2.readRowHitRate                78.79                       # Row buffer hit rate for reads
system.mem_ctrls2.writeRowHitRate               65.10                       # Row buffer hit rate for writes
system.mem_ctrls2.avgGap                    182043.52                       # Average gap between requests
system.mem_ctrls2.pageHitRate                   73.90                       # Row buffer hit rate, read and write combined
system.mem_ctrls2.memoryStateTime::IDLE   15441902500                       # Time in different power states
system.mem_ctrls2.memoryStateTime::REF     3057080000                       # Time in different power states
system.mem_ctrls2.memoryStateTime::PRE_PDN            0                       # Time in different power states
system.mem_ctrls2.memoryStateTime::ACT    73052018750                       # Time in different power states
system.mem_ctrls2.memoryStateTime::ACT_PDN            0                       # Time in different power states
system.mem_ctrls2.actEnergy::0              502218360                       # Energy for activate commands per rank (pJ)
system.mem_ctrls2.actEnergy::1              489956040                       # Energy for activate commands per rank (pJ)
system.mem_ctrls2.preEnergy::0              274027875                       # Energy for precharge commands per rank (pJ)
system.mem_ctrls2.preEnergy::1              267337125                       # Energy for precharge commands per rank (pJ)
system.mem_ctrls2.readEnergy::0            1265440800                       # Energy for read commands per rank (pJ)
system.mem_ctrls2.readEnergy::1            1256197800                       # Energy for read commands per rank (pJ)
system.mem_ctrls2.writeEnergy::0            583614720                       # Energy for write commands per rank (pJ)
system.mem_ctrls2.writeEnergy::1            580258080                       # Energy for write commands per rank (pJ)
system.mem_ctrls2.refreshEnergy::0         5979648480                       # Energy for refresh commands per rank (pJ)
system.mem_ctrls2.refreshEnergy::1         5979648480                       # Energy for refresh commands per rank (pJ)
system.mem_ctrls2.actBackEnergy::0        37064907495                       # Energy for active background per rank (pJ)
system.mem_ctrls2.actBackEnergy::1        36145448190                       # Energy for active background per rank (pJ)
system.mem_ctrls2.preBackEnergy::0        22417515750                       # Energy for precharge background per rank (pJ)
system.mem_ctrls2.preBackEnergy::1        23224059000                       # Energy for precharge background per rank (pJ)
system.mem_ctrls2.totalEnergy::0          68087373480                       # Total energy per rank (pJ)
system.mem_ctrls2.totalEnergy::1          67942904715                       # Total energy per rank (pJ)
system.mem_ctrls2.averagePower::0          743.709875                       # Core power per rank (mW)
system.mem_ctrls2.averagePower::1          742.131861                       # Core power per rank (mW)
system.mem_ctrls3.bytes_read::ruby.dir_cntrl3     20683776                       # Number of bytes read from this memory
system.mem_ctrls3.bytes_read::total          20683776                       # Number of bytes read from this memory
system.mem_ctrls3.bytes_written::ruby.dir_cntrl3     11490368                       # Number of bytes written to this memory
system.mem_ctrls3.bytes_written::total       11490368                       # Number of bytes written to this memory
system.mem_ctrls3.num_reads::ruby.dir_cntrl3       323184                       # Number of read requests responded to by this memory
system.mem_ctrls3.num_reads::total             323184                       # Number of read requests responded to by this memory
system.mem_ctrls3.num_writes::ruby.dir_cntrl3       179537                       # Number of write requests responded to by this memory
system.mem_ctrls3.num_writes::total            179537                       # Number of write requests responded to by this memory
system.mem_ctrls3.bw_read::ruby.dir_cntrl3    225916580                       # Total read bandwidth from this memory (bytes/s)
system.mem_ctrls3.bw_read::total            225916580                       # Total read bandwidth from this memory (bytes/s)
system.mem_ctrls3.bw_write::ruby.dir_cntrl3    125502454                       # Write bandwidth from this memory (bytes/s)
system.mem_ctrls3.bw_write::total           125502454                       # Write bandwidth from this memory (bytes/s)
system.mem_ctrls3.bw_total::ruby.dir_cntrl3    351419034                       # Total bandwidth to/from this memory (bytes/s)
system.mem_ctrls3.bw_total::total           351419034                       # Total bandwidth to/from this memory (bytes/s)
system.mem_ctrls3.readReqs                     323185                       # Number of read requests accepted
system.mem_ctrls3.writeReqs                    179537                       # Number of write requests accepted
system.mem_ctrls3.readBursts                   323185                       # Number of DRAM read bursts, including those serviced by the write queue
system.mem_ctrls3.writeBursts                  179537                       # Number of DRAM write bursts, including those merged in the write queue
system.mem_ctrls3.bytesReadDRAM              20683136                       # Total number of bytes read from DRAM
system.mem_ctrls3.bytesReadWrQ                    704                       # Total number of bytes read from write queue
system.mem_ctrls3.bytesWritten               11490368                       # Total number of bytes written to DRAM
system.mem_ctrls3.bytesReadSys               20683840                       # Total read bytes from the system interface side
system.mem_ctrls3.bytesWrittenSys            11490368                       # Total written bytes from the system interface side
system.mem_ctrls3.servicedByWrQ                    11                       # Number of DRAM read bursts serviced by the write queue
system.mem_ctrls3.mergedWrBursts                    0                       # Number of DRAM write bursts merged with an existing one
system.mem_ctrls3.neitherReadNorWriteReqs            0                       # Number of requests that are neither read nor write
system.mem_ctrls3.perBankRdBursts::0            19936                       # Per bank write bursts
system.mem_ctrls3.perBankRdBursts::1            20497                       # Per bank write bursts
system.mem_ctrls3.perBankRdBursts::2            20088                       # Per bank write bursts
system.mem_ctrls3.perBankRdBursts::3            20469                       # Per bank write bursts
system.mem_ctrls3.perBankRdBursts::4            20022                       # Per bank write bursts
system.mem_ctrls3.perBankRdBursts::5            20572                       # Per bank write bursts
system.mem_ctrls3.perBankRdBursts::6            20224                       # Per bank write bursts
system.mem_ctrls3.perBankRdBursts::7            20324                       # Per bank write bursts
system.mem_ctrls3.perBankRdBursts::8            20237                       # Per bank write bursts
system.mem_ctrls3.perBankRdBursts::9            20467                       # Per bank write bursts
system.mem_ctrls3.perBankRdBursts::10           20267                       # Per bank write bursts
system.mem_ctrls3.perBankRdBursts::11           20536                       # Per bank write bursts
system.mem_ctrls3.perBankRdBursts::12           19854                       # Per bank write bursts
system.mem_ctrls3.perBankRdBursts::13           19671                       # Per bank write bursts
system.mem_ctrls3.perBankRdBursts::14           19952                       # Per bank write bursts
system.mem_ctrls3.perBankRdBursts::15           20058                       # Per bank write bursts
system.mem_ctrls3.perBankWrBursts::0            11121                       # Per bank write bursts
system.mem_ctrls3.perBankWrBursts::1            11262                       # Per bank write bursts
system.mem_ctrls3.perBankWrBursts::2            11262                       # Per bank write bursts
system.mem_ctrls3.perBankWrBursts::3            11265                       # Per bank write bursts
system.mem_ctrls3.perBankWrBursts::4            11205                       # Per bank write bursts
system.mem_ctrls3.perBankWrBursts::5            11500                       # Per bank write bursts
system.mem_ctrls3.perBankWrBursts::6            11150                       # Per bank write bursts
system.mem_ctrls3.perBankWrBursts::7            11259                       # Per bank write bursts
system.mem_ctrls3.perBankWrBursts::8            11453                       # Per bank write bursts
system.mem_ctrls3.perBankWrBursts::9            11298                       # Per bank write bursts
system.mem_ctrls3.perBankWrBursts::10           11111                       # Per bank write bursts
system.mem_ctrls3.perBankWrBursts::11           11305                       # Per bank write bursts
system.mem_ctrls3.perBankWrBursts::12           10958                       # Per bank write bursts
system.mem_ctrls3.perBankWrBursts::13           10915                       # Per bank write bursts
system.mem_ctrls3.perBankWrBursts::14           11294                       # Per bank write bursts
system.mem_ctrls3.perBankWrBursts::15           11179                       # Per bank write bursts
system.mem_ctrls3.numRdRetry                    34238                       # Number of times read queue was full causing retry
system.mem_ctrls3.numWrRetry                     5367                       # Number of times write queue was full causing retry
system.mem_ctrls3.totGap                  91554185500                       # Total gap between requests
system.mem_ctrls3.readPktSize::0                    0                       # Read request sizes (log2)
system.mem_ctrls3.readPktSize::1                    0                       # Read request sizes (log2)
system.mem_ctrls3.readPktSize::2                    0                       # Read request sizes (log2)
system.mem_ctrls3.readPktSize::3                    0                       # Read request sizes (log2)
system.mem_ctrls3.readPktSize::4                    0                       # Read request sizes (log2)
system.mem_ctrls3.readPktSize::5                    0                       # Read request sizes (log2)
system.mem_ctrls3.readPktSize::6               323185                       # Read request sizes (log2)
system.mem_ctrls3.writePktSize::0                   0                       # Write request sizes (log2)
system.mem_ctrls3.writePktSize::1                   0                       # Write request sizes (log2)
system.mem_ctrls3.writePktSize::2                   0                       # Write request sizes (log2)
system.mem_ctrls3.writePktSize::3                   0                       # Write request sizes (log2)
system.mem_ctrls3.writePktSize::4                   0                       # Write request sizes (log2)
system.mem_ctrls3.writePktSize::5                   0                       # Write request sizes (log2)
system.mem_ctrls3.writePktSize::6              179537                       # Write request sizes (log2)
system.mem_ctrls3.rdQLenPdf::0                 129990                       # What read queue length does an incoming req see
system.mem_ctrls3.rdQLenPdf::1                  14176                       # What read queue length does an incoming req see
system.mem_ctrls3.rdQLenPdf::2                  13599                       # What read queue length does an incoming req see
system.mem_ctrls3.rdQLenPdf::3                  12737                       # What read queue length does an incoming req see
system.mem_ctrls3.rdQLenPdf::4                  11694                       # What read queue length does an incoming req see
system.mem_ctrls3.rdQLenPdf::5                  10824                       # What read queue length does an incoming req see
system.mem_ctrls3.rdQLenPdf::6                   9946                       # What read queue length does an incoming req see
system.mem_ctrls3.rdQLenPdf::7                   8848                       # What read queue length does an incoming req see
system.mem_ctrls3.rdQLenPdf::8                   7562                       # What read queue length does an incoming req see
system.mem_ctrls3.rdQLenPdf::9                   6862                       # What read queue length does an incoming req see
system.mem_ctrls3.rdQLenPdf::10                  6168                       # What read queue length does an incoming req see
system.mem_ctrls3.rdQLenPdf::11                  5599                       # What read queue length does an incoming req see
system.mem_ctrls3.rdQLenPdf::12                  4929                       # What read queue length does an incoming req see
system.mem_ctrls3.rdQLenPdf::13                  4495                       # What read queue length does an incoming req see
system.mem_ctrls3.rdQLenPdf::14                  4013                       # What read queue length does an incoming req see
system.mem_ctrls3.rdQLenPdf::15                  3714                       # What read queue length does an incoming req see
system.mem_ctrls3.rdQLenPdf::16                  3401                       # What read queue length does an incoming req see
system.mem_ctrls3.rdQLenPdf::17                  3081                       # What read queue length does an incoming req see
system.mem_ctrls3.rdQLenPdf::18                  2803                       # What read queue length does an incoming req see
system.mem_ctrls3.rdQLenPdf::19                  2594                       # What read queue length does an incoming req see
system.mem_ctrls3.rdQLenPdf::20                  2417                       # What read queue length does an incoming req see
system.mem_ctrls3.rdQLenPdf::21                  2171                       # What read queue length does an incoming req see
system.mem_ctrls3.rdQLenPdf::22                  2123                       # What read queue length does an incoming req see
system.mem_ctrls3.rdQLenPdf::23                  1958                       # What read queue length does an incoming req see
system.mem_ctrls3.rdQLenPdf::24                  1886                       # What read queue length does an incoming req see
[...]
system.ruby.L2Cache_Controller.MT_MB.L1_PUTX::total           67                      
system.ruby.L2Cache_Controller.MT_MB.L1_PUTX_old |           0      0.00%      0.00% |           0      0.00%      0.00% |           0      0.00%      0.00% |           0      0.00%      0.00% |           0      0.00%      0.00% |           0      0.00%      0.00% |           0      0.00%      0.00% |           0      0.00%      0.00% |           0      0.00%      0.00% |           0      0.00%      0.00% |           0      0.00%      0.00% |           0      0.00%      0.00% |           0      0.00%      0.00% |           0      0.00%      0.00% |           0      0.00%      0.00% |           0      0.00%      0.00% |           0      0.00%      0.00% |           0      0.00%      0.00% |           0      0.00%      0.00% |           0      0.00%      0.00% |           0      0.00%      0.00% |           1    100.00%    100.00% |           0      0.00%    100.00% |           0      0.00%    100.00% |           0      0.00%    100.00% |           0      0.00%    100.00% |           0      0.00%    100.00% |           0      0.00%    100.00% |           0      0.00%    100.00% |           0      0.00%    100.00% |           0      0.00%    100.00% |           0      0.00%    100.00%
system.ruby.L2Cache_Controller.MT_MB.L1_PUTX_old::total            1                      
system.ruby.L2Cache_Controller.MT_MB.Exclusive_Unblock |      148920      5.79%      5.79% |       78891      3.07%      8.85% |       77526      3.01%     11.86% |       78530      3.05%     14.91% |       77790      3.02%     17.94% |       77397      3.01%     20.94% |       77371      3.01%     23.95% |       77104      3.00%     26.95% |       77401      3.01%     29.95% |       78500      3.05%     33.00% |       79505      3.09%     36.09% |       79102      3.07%     39.16% |       78835      3.06%     42.23% |       77483      3.01%     45.24% |       76975      2.99%     48.23% |       77388      3.01%     51.24% |       78476      3.05%     54.28% |       77831      3.02%     57.31% |       78290      3.04%     60.35% |       78409      3.05%     63.40% |       78254      3.04%     66.44% |       80122      3.11%     69.55% |       78088      3.03%     72.58% |       77629      3.02%     75.60% |       77847      3.02%     78.62% |       78145      3.04%     81.66% |       77822      3.02%     84.68% |       77398      3.01%     87.69% |       77930      3.03%     90.72% |       77392      3.01%     93.73% |       80025      3.11%     96.84% |       81460      3.16%    100.00%
system.ruby.L2Cache_Controller.MT_MB.Exclusive_Unblock::total      2573836                      
system.ruby.L2Cache_Controller.MT_IIB.L1_GETS |           0      0.00%      0.00% |           0      0.00%      0.00% |           0      0.00%      0.00% |           0      0.00%      0.00% |           2      7.41%      7.41% |           1      3.70%     11.11% |           2      7.41%     18.52% |           2      7.41%     25.93% |           0      0.00%     25.93% |           3     11.11%     37.04% |           1      3.70%     40.74% |           0      0.00%     40.74% |           2      7.41%     48.15% |           1      3.70%     51.85% |           3     11.11%     62.96% |           0      0.00%     62.96% |           2      7.41%     70.37% |           1      3.70%     74.07% |           2      7.41%     81.48% |           1      3.70%     85.19% |           0      0.00%     85.19% |           0      0.00%     85.19% |           2      7.41%     92.59% |           0      0.00%     92.59% |           1      3.70%     96.30% |           0      0.00%     96.30% |           0      0.00%     96.30% |           0      0.00%     96.30% |           0      0.00%     96.30% |           0      0.00%     96.30% |           0      0.00%     96.30% |           1      3.70%    100.00%
system.ruby.L2Cache_Controller.MT_IIB.L1_GETS::total           27                      
system.ruby.L2Cache_Controller.MT_IIB.L1_PUTX |           4      2.74%      2.74% |           4      2.74%      5.48% |           2      1.37%      6.85% |           5      3.42%     10.27% |           5      3.42%     13.70% |           4      2.74%     16.44% |           2      1.37%     17.81% |           5      3.42%     21.23% |           6      4.11%     25.34% |           2      1.37%     26.71% |           7      4.79%     31.51% |           5      3.42%     34.93% |          11      7.53%     42.47% |           5      3.42%     45.89% |           4      2.74%     48.63% |           3      2.05%     50.68% |           2      1.37%     52.05% |           4      2.74%     54.79% |           6      4.11%     58.90% |           7      4.79%     63.70% |           8      5.48%     69.18% |           2      1.37%     70.55% |           9      6.16%     76.71% |           2      1.37%     78.08% |           3      2.05%     80.14% |           5      3.42%     83.56% |           5      3.42%     86.99% |           4      2.74%     89.73% |           5      3.42%     93.15% |           3      2.05%     95.21% |           5      3.42%     98.63% |           2      1.37%    100.00%
system.ruby.L2Cache_Controller.MT_IIB.L1_PUTX::total          146                      
system.ruby.L2Cache_Controller.MT_IIB.WB_Data |           0      0.00%      0.00% |           0      0.00%      0.00% |           0      0.00%      0.00% |           0      0.00%      0.00% |           0      0.00%      0.00% |           0      0.00%      0.00% |           0      0.00%      0.00% |           0      0.00%      0.00% |           0      0.00%      0.00% |           0      0.00%      0.00% |           0      0.00%      0.00% |           0      0.00%      0.00% |           0      0.00%      0.00% |           0      0.00%      0.00% |           0      0.00%      0.00% |           0      0.00%      0.00% |           0      0.00%      0.00% |           0      0.00%      0.00% |           0      0.00%      0.00% |           0      0.00%      0.00% |           0      0.00%      0.00% |           0      0.00%      0.00% |           0      0.00%      0.00% |           0      0.00%      0.00% |           0      0.00%      0.00% |           2    100.00%    100.00% |           0      0.00%    100.00% |           0      0.00%    100.00% |           0      0.00%    100.00% |           0      0.00%    100.00% |           0      0.00%    100.00% |           0      0.00%    100.00%
system.ruby.L2Cache_Controller.MT_IIB.WB_Data::total            2                      
system.ruby.L2Cache_Controller.MT_IIB.WB_Data_clean |        1401      2.98%      2.98% |        1418      3.01%      5.99% |        1419      3.02%      9.01% |        1421      3.02%     12.03% |        1463      3.11%     15.14% |        1452      3.09%     18.22% |        1431      3.04%     21.27% |        1389      2.95%     24.22% |        1424      3.03%     27.25% |        1452      3.09%     30.33% |        1482      3.15%     33.48% |        1415      3.01%     36.49% |        1452      3.09%     39.58% |        1488      3.16%     42.74% |        1466      3.12%     45.86% |        1477      3.14%     48.99% |        1514      3.22%     52.21% |        1497      3.18%     55.39% |        1534      3.26%     58.66% |        1493      3.17%     61.83% |        1497      3.18%     65.01% |        1493      3.17%     68.18% |        1558      3.31%     71.50% |        1474      3.13%     74.63% |        1478      3.14%     77.77% |        1479      3.14%     80.91% |        1481      3.15%     84.06% |        1498      3.18%     87.25% |        1516      3.22%     90.47% |        1479      3.14%     93.61% |        1518      3.23%     96.84% |        1487      3.16%    100.00%
system.ruby.L2Cache_Controller.MT_IIB.WB_Data_clean::total        47046                      
system.ruby.L2Cache_Controller.MT_IIB.Unblock |          45      2.06%      2.06% |          28      1.28%      3.34% |          61      2.79%      6.14% |          50      2.29%      8.43% |          47      2.15%     10.58% |          50      2.29%     12.87% |          35      1.60%     14.48% |          49      2.24%     16.72% |          98      4.49%     21.21% |          73      3.34%     24.55% |          97      4.44%     29.00% |         116      5.31%     34.31% |          96      4.40%     38.71% |          75      3.44%     42.14% |         110      5.04%     47.18% |          66      3.02%     50.21% |          86      3.94%     54.15% |          74      3.39%     57.54% |          59      2.70%     60.24% |          81      3.71%     63.95% |          98      4.49%     68.44% |          51      2.34%     70.77% |          71      3.25%     74.03% |          72      3.30%     77.32% |          88      4.03%     81.36% |          76      3.48%     84.84% |          68      3.11%     87.95% |          62      2.84%     90.79% |          55      2.52%     93.31% |          62      2.84%     96.15% |          42      1.92%     98.08% |          42      1.92%    100.00%
system.ruby.L2Cache_Controller.MT_IIB.Unblock::total         2183                      
system.ruby.L2Cache_Controller.MT_IB.WB_Data_clean |          45      2.06%      2.06% |          28      1.28%      3.34% |          61      2.79%      6.14% |          50      2.29%      8.43% |          47      2.15%     10.58% |          50      2.29%     12.87% |          35      1.60%     14.48% |          49      2.24%     16.72% |          98      4.49%     21.21% |          73      3.34%     24.55% |          97      4.44%     29.00% |         116      5.31%     34.31% |          96      4.40%     38.71% |          75      3.44%     42.14% |         110      5.04%     47.18% |          66      3.02%     50.21% |          86      3.94%     54.15% |          74      3.39%     57.54% |          59      2.70%     60.24% |          81      3.71%     63.95% |          98      4.49%     68.44% |          51      2.34%     70.77% |          71      3.25%     74.03% |          72      3.30%     77.32% |          88      4.03%     81.36% |          76      3.48%     84.84% |          68      3.11%     87.95% |          62      2.84%     90.79% |          55      2.52%     93.31% |          62      2.84%     96.15% |          42      1.92%     98.08% |          42      1.92%    100.00%
system.ruby.L2Cache_Controller.MT_IB.WB_Data_clean::total         2183                      
system.ruby.L2Cache_Controller.MT_SB.L1_GETS |           0      0.00%      0.00% |           0      0.00%      0.00% |           0      0.00%      0.00% |           0      0.00%      0.00% |           0      0.00%      0.00% |           0      0.00%      0.00% |           1     12.50%     12.50% |           1     12.50%     25.00% |           0      0.00%     25.00% |           0      0.00%     25.00% |           1     12.50%     37.50% |           0      0.00%     37.50% |           0      0.00%     37.50% |           0      0.00%     37.50% |           1     12.50%     50.00% |           0      0.00%     50.00% |           0      0.00%     50.00% |           1     12.50%     62.50% |           0      0.00%     62.50% |           0      0.00%     62.50% |           1     12.50%     75.00% |           0      0.00%     75.00% |           0      0.00%     75.00% |           0      0.00%     75.00% |           1     12.50%     87.50% |           0      0.00%     87.50% |           0      0.00%     87.50% |           1     12.50%    100.00% |           0      0.00%    100.00% |           0      0.00%    100.00% |           0      0.00%    100.00% |           0      0.00%    100.00%
system.ruby.L2Cache_Controller.MT_SB.L1_GETS::total            8                      
system.ruby.L2Cache_Controller.MT_SB.L1_PUTX |           0      0.00%      0.00% |           0      0.00%      0.00% |           0      0.00%      0.00% |           0      0.00%      0.00% |           1      3.33%      3.33% |           0      0.00%      3.33% |           0      0.00%      3.33% |           0      0.00%      3.33% |           0      0.00%      3.33% |           1      3.33%      6.67% |           1      3.33%     10.00% |           0      0.00%     10.00% |           0      0.00%     10.00% |           3     10.00%     20.00% |           1      3.33%     23.33% |           1      3.33%     26.67% |           1      3.33%     30.00% |           0      0.00%     30.00% |           1      3.33%     33.33% |           0      0.00%     33.33% |           2      6.67%     40.00% |           2      6.67%     46.67% |           2      6.67%     53.33% |           2      6.67%     60.00% |           2      6.67%     66.67% |           1      3.33%     70.00% |           3     10.00%     80.00% |           3     10.00%     90.00% |           1      3.33%     93.33% |           0      0.00%     93.33% |           2      6.67%    100.00% |           0      0.00%    100.00%
system.ruby.L2Cache_Controller.MT_SB.L1_PUTX::total           30                      
system.ruby.L2Cache_Controller.MT_SB.Unblock |        1401      2.98%      2.98% |        1418      3.01%      5.99% |        1419      3.02%      9.01% |        1421      3.02%     12.03% |        1463      3.11%     15.14% |        1452      3.09%     18.22% |        1431      3.04%     21.27% |        1389      2.95%     24.22% |        1424      3.03%     27.24% |        1452      3.09%     30.33% |        1482      3.15%     33.48% |        1415      3.01%     36.49% |        1452      3.09%     39.57% |        1488      3.16%     42.74% |        1466      3.12%     45.85% |        1477      3.14%     48.99% |        1514      3.22%     52.21% |        1497      3.18%     55.39% |        1534      3.26%     58.65% |        1493      3.17%     61.83% |        1497      3.18%     65.01% |        1493      3.17%     68.18% |        1558      3.31%     71.49% |        1474      3.13%     74.63% |        1478      3.14%     77.77% |        1481      3.15%     80.92% |        1481      3.15%     84.06% |        1498      3.18%     87.25% |        1516      3.22%     90.47% |        1479      3.14%     93.61% |        1518      3.23%     96.84% |        1487      3.16%    100.00%
system.ruby.L2Cache_Controller.MT_SB.Unblock::total        47048                      
system.ruby.SimicsNetworkPortInterface_Controller.MessageSend |      443631     21.66%     21.66% |     1024217     50.00%     71.66% |       36120      1.76%     73.42% |       36649      1.79%     75.21% |       36545      1.78%     76.99% |       36968      1.80%     78.80% |       36427      1.78%     80.58% |       36963      1.80%     82.38% |       35949      1.75%     84.14% |       36318      1.77%     85.91% |       36141      1.76%     87.67% |       36184      1.77%     89.44% |       36285      1.77%     91.21% |       35967      1.76%     92.97% |       35652      1.74%     94.71% |       35944      1.75%     96.46% |       35985      1.76%     98.22% |       36489      1.78%    100.00% |           0      0.00%    100.00% |           0      0.00%    100.00% |           0      0.00%    100.00% |           0      0.00%    100.00% |           0      0.00%    100.00% |           0      0.00%    100.00% |           0      0.00%    100.00% |           0      0.00%    100.00% |           0      0.00%    100.00% |           0      0.00%    100.00% |           0      0.00%    100.00% |           0      0.00%    100.00% |           0      0.00%    100.00% |           0      0.00%    100.00%
system.ruby.SimicsNetworkPortInterface_Controller.MessageSend::total      2048434                      
system.ruby.SimicsNetworkPortInterface_Controller.MessageRecv |      443631     21.66%     21.66% |     1024217     50.00%     71.66% |       36120      1.76%     73.42% |       36649      1.79%     75.21% |       36545      1.78%     76.99% |       36968      1.80%     78.80% |       36427      1.78%     80.58% |       36963      1.80%     82.38% |       35949      1.75%     84.14% |       36318      1.77%     85.91% |       36141      1.76%     87.67% |       36184      1.77%     89.44% |       36285      1.77%     91.21% |       35967      1.76%     92.97% |       35652      1.74%     94.71% |       35944      1.75%     96.46% |       35985      1.76%     98.22% |       36489      1.78%    100.00% |           0      0.00%    100.00% |           0      0.00%    100.00% |           0      0.00%    100.00% |           0      0.00%    100.00% |           0      0.00%    100.00% |           0      0.00%    100.00% |           0      0.00%    100.00% |           0      0.00%    100.00% |           0      0.00%    100.00% |           0      0.00%    100.00% |           0      0.00%    100.00% |           0      0.00%    100.00% |           0      0.00%    100.00% |           0      0.00%    100.00%
system.ruby.SimicsNetworkPortInterface_Controller.MessageRecv::total      2048434                      
system.ruby.SimicsNetworkPortInterface_Controller.A.MessageSend |      443631     21.66%     21.66% |     1024217     50.00%     71.66% |       36120      1.76%     73.42% |       36649      1.79%     75.21% |       36545      1.78%     76.99% |       36968      1.80%     78.80% |       36427      1.78%     80.58% |       36963      1.80%     82.38% |       35949      1.75%     84.14% |       36318      1.77%     85.91% |       36141      1.76%     87.67% |       36184      1.77%     89.44% |       36285      1.77%     91.21% |       35967      1.76%     92.97% |       35652      1.74%     94.71% |       35944      1.75%     96.46% |       35985      1.76%     98.22% |       36489      1.78%    100.00% |           0      0.00%    100.00% |           0      0.00%    100.00% |           0      0.00%    100.00% |           0      0.00%    100.00% |           0      0.00%    100.00% |           0      0.00%    100.00% |           0      0.00%    100.00% |           0      0.00%    100.00% |           0      0.00%    100.00% |           0      0.00%    100.00% |           0      0.00%    100.00% |           0      0.00%    100.00% |           0      0.00%    100.00% |           0      0.00%    100.00%
system.ruby.SimicsNetworkPortInterface_Controller.A.MessageSend::total      2048434                      
system.ruby.SimicsNetworkPortInterface_Controller.A.MessageRecv |      443631     21.66%     21.66% |     1024217     50.00%     71.66% |       36120      1.76%     73.42% |       36649      1.79%     75.21% |       36545      1.78%     76.99% |       36968      1.80%     78.80% |       36427      1.78%     80.58% |       36963      1.80%     82.38% |       35949      1.75%     84.14% |       36318      1.77%     85.91% |       36141      1.76%     87.67% |       36184      1.77%     89.44% |       36285      1.77%     91.21% |       35967      1.76%     92.97% |       35652      1.74%     94.71% |       35944      1.75%     96.46% |       35985      1.76%     98.22% |       36489      1.78%    100.00% |           0      0.00%    100.00% |           0      0.00%    100.00% |           0      0.00%    100.00% |           0      0.00%    100.00% |           0      0.00%    100.00% |           0      0.00%    100.00% |           0      0.00%    100.00% |           0      0.00%    100.00% |           0      0.00%    100.00% |           0      0.00%    100.00% |           0      0.00%    100.00% |           0      0.00%    100.00% |           0      0.00%    100.00% |           0      0.00%    100.00%
system.ruby.SimicsNetworkPortInterface_Controller.A.MessageRecv::total      2048434                      
system.switch_cpus.kern.inst.arm                    0                       # number of arm instructions executed
system.switch_cpus.kern.inst.quiesce                0                       # number of quiesce instructions executed

---------- End Simulation Statistics   ----------
