
---------- Begin Simulation Statistics ----------
sim_seconds                                  0.057151                       # Number of seconds simulated
sim_ticks                                 57150577000                       # Number of ticks simulated
final_tick                               5233318655500                       # Number of ticks from beginning of simulation (restored from checkpoints and never reset)
sim_freq                                 1000000000000                       # Frequency of simulated ticks
host_inst_rate                                  61788                       # Simulator instruction rate (inst/s)
host_op_rate                                   109258                       # Simulator op (including micro ops) rate (op/s)
host_tick_rate                              152414028                       # Simulator tick rate (ticks/s)
host_mem_usage                                4042460                       # Number of bytes of host memory used
host_seconds                                   374.97                       # Real time elapsed on the host
sim_insts                                    23168787                       # Number of instructions simulated
sim_ops                                      40968442                       # Number of ops (including micro ops) simulated
system.voltage_domain.voltage                       1                       # Voltage in Volts
system.clk_domain.clock                           500                       # Clock period in ticks
system.mem_ctrls0.bytes_read::ruby.dir_cntrl0     12630592                       # Number of bytes read from this memory
system.mem_ctrls0.bytes_read::total          12630592                       # Number of bytes read from this memory
system.mem_ctrls0.bytes_written::ruby.dir_cntrl0      8054080                       # Number of bytes written to this memory
system.mem_ctrls0.bytes_written::total        8054080                       # Number of bytes written to this memory
system.mem_ctrls0.num_reads::ruby.dir_cntrl0       197353                       # Number of read requests responded to by this memory
system.mem_ctrls0.num_reads::total             197353                       # Number of read requests responded to by this memory
system.mem_ctrls0.num_writes::ruby.dir_cntrl0       125845                       # Number of write requests responded to by this memory
system.mem_ctrls0.num_writes::total            125845                       # Number of write requests responded to by this memory
system.mem_ctrls0.bw_read::ruby.dir_cntrl0    221005503                       # Total read bandwidth from this memory (bytes/s)
system.mem_ctrls0.bw_read::total            221005503                       # Total read bandwidth from this memory (bytes/s)
system.mem_ctrls0.bw_write::ruby.dir_cntrl0    140927361                       # Write bandwidth from this memory (bytes/s)
system.mem_ctrls0.bw_write::total           140927361                       # Write bandwidth from this memory (bytes/s)
system.mem_ctrls0.bw_total::ruby.dir_cntrl0    361932864                       # Total bandwidth to/from this memory (bytes/s)
system.mem_ctrls0.bw_total::total           361932864                       # Total bandwidth to/from this memory (bytes/s)
system.mem_ctrls0.readReqs                     197353                       # Number of read requests accepted
system.mem_ctrls0.writeReqs                    125845                       # Number of write requests accepted
system.mem_ctrls0.readBursts                   197353                       # Number of DRAM read bursts, including those serviced by the write queue
system.mem_ctrls0.writeBursts                  125845                       # Number of DRAM write bursts, including those merged in the write queue
system.mem_ctrls0.bytesReadDRAM              12629056                       # Total number of bytes read from DRAM
system.mem_ctrls0.bytesReadWrQ                   1536                       # Total number of bytes read from write queue
system.mem_ctrls0.bytesWritten                8054080                       # Total number of bytes written to DRAM
system.mem_ctrls0.bytesReadSys               12630592                       # Total read bytes from the system interface side
system.mem_ctrls0.bytesWrittenSys             8054080                       # Total written bytes from the system interface side
system.mem_ctrls0.servicedByWrQ                    24                       # Number of DRAM read bursts serviced by the write queue
system.mem_ctrls0.mergedWrBursts                    0                       # Number of DRAM write bursts merged with an existing one
system.mem_ctrls0.neitherReadNorWriteReqs            0                       # Number of requests that are neither read nor write
system.mem_ctrls0.perBankRdBursts::0            12087                       # Per bank write bursts
system.mem_ctrls0.perBankRdBursts::1            12195                       # Per bank write bursts
system.mem_ctrls0.perBankRdBursts::2            12060                       # Per bank write bursts
system.mem_ctrls0.perBankRdBursts::3            12458                       # Per bank write bursts
system.mem_ctrls0.perBankRdBursts::4            12208                       # Per bank write bursts
system.mem_ctrls0.perBankRdBursts::5            12291                       # Per bank write bursts
system.mem_ctrls0.perBankRdBursts::6            12497                       # Per bank write bursts
system.mem_ctrls0.perBankRdBursts::7            12668                       # Per bank write bursts
system.mem_ctrls0.perBankRdBursts::8            12415                       # Per bank write bursts
system.mem_ctrls0.perBankRdBursts::9            12788                       # Per bank write bursts
system.mem_ctrls0.perBankRdBursts::10           12434                       # Per bank write bursts
system.mem_ctrls0.perBankRdBursts::11           12725                       # Per bank write bursts
system.mem_ctrls0.perBankRdBursts::12           12235                       # Per bank write bursts
system.mem_ctrls0.perBankRdBursts::13           12031                       # Per bank write bursts
system.mem_ctrls0.perBankRdBursts::14           12303                       # Per bank write bursts
system.mem_ctrls0.perBankRdBursts::15           11934                       # Per bank write bursts
system.mem_ctrls0.perBankWrBursts::0             7803                       # Per bank write bursts
system.mem_ctrls0.perBankWrBursts::1             7675                       # Per bank write bursts
system.mem_ctrls0.perBankWrBursts::2             7830                       # Per bank write bursts
system.mem_ctrls0.perBankWrBursts::3             7842                       # Per bank write bursts
system.mem_ctrls0.perBankWrBursts::4             7808                       # Per bank write bursts
system.mem_ctrls0.perBankWrBursts::5             7916                       # Per bank write bursts
system.mem_ctrls0.perBankWrBursts::6             8000                       # Per bank write bursts
system.mem_ctrls0.perBankWrBursts::7             8060                       # Per bank write bursts
system.mem_ctrls0.perBankWrBursts::8             7937                       # Per bank write bursts
system.mem_ctrls0.perBankWrBursts::9             8076                       # Per bank write bursts
system.mem_ctrls0.perBankWrBursts::10            7891                       # Per bank write bursts
system.mem_ctrls0.perBankWrBursts::11            7926                       # Per bank write bursts
system.mem_ctrls0.perBankWrBursts::12            7761                       # Per bank write bursts
system.mem_ctrls0.perBankWrBursts::13            7818                       # Per bank write bursts
system.mem_ctrls0.perBankWrBursts::14            7875                       # Per bank write bursts
system.mem_ctrls0.perBankWrBursts::15            7627                       # Per bank write bursts
system.mem_ctrls0.numRdRetry                    18085                       # Number of times read queue was full causing retry
system.mem_ctrls0.numWrRetry                     5456                       # Number of times write queue was full causing retry
system.mem_ctrls0.totGap                  57150071500                       # Total gap between requests
system.mem_ctrls0.readPktSize::0                    0                       # Read request sizes (log2)
system.mem_ctrls0.readPktSize::1                    0                       # Read request sizes (log2)
system.mem_ctrls0.readPktSize::2                    0                       # Read request sizes (log2)
system.mem_ctrls0.readPktSize::3                    0                       # Read request sizes (log2)
system.mem_ctrls0.readPktSize::4                    0                       # Read request sizes (log2)
system.mem_ctrls0.readPktSize::5                    0                       # Read request sizes (log2)
system.mem_ctrls0.readPktSize::6               197353                       # Read request sizes (log2)
system.mem_ctrls0.writePktSize::0                   0                       # Write request sizes (log2)
system.mem_ctrls0.writePktSize::1                   0                       # Write request sizes (log2)
system.mem_ctrls0.writePktSize::2                   0                       # Write request sizes (log2)
system.mem_ctrls0.writePktSize::3                   0                       # Write request sizes (log2)
system.mem_ctrls0.writePktSize::4                   0                       # Write request sizes (log2)
system.mem_ctrls0.writePktSize::5                   0                       # Write request sizes (log2)
system.mem_ctrls0.writePktSize::6              125845                       # Write request sizes (log2)
system.mem_ctrls0.rdQLenPdf::0                  74213                       # What read queue length does an incoming req see
system.mem_ctrls0.rdQLenPdf::1                  10036                       # What read queue length does an incoming req see
system.mem_ctrls0.rdQLenPdf::2                   8775                       # What read queue length does an incoming req see
system.mem_ctrls0.rdQLenPdf::3                   7842                       # What read queue length does an incoming req see
system.mem_ctrls0.rdQLenPdf::4                   7383                       # What read queue length does an incoming req see
system.mem_ctrls0.rdQLenPdf::5                   6959                       # What read queue length does an incoming req see
system.mem_ctrls0.rdQLenPdf::6                   6471                       # What read queue length does an incoming req see
system.mem_ctrls0.rdQLenPdf::7                   5891                       # What read queue length does an incoming req see
system.mem_ctrls0.rdQLenPdf::8                   5342                       # What read queue length does an incoming req see
system.mem_ctrls0.rdQLenPdf::9                   4832                       # What read queue length does an incoming req see
system.mem_ctrls0.rdQLenPdf::10                  4224                       # What read queue length does an incoming req see
system.mem_ctrls0.rdQLenPdf::11                  3641                       # What read queue length does an incoming req see
system.mem_ctrls0.rdQLenPdf::12                  3339                       # What read queue length does an incoming req see
system.mem_ctrls0.rdQLenPdf::13                  3100                       # What read queue length does an incoming req see
system.mem_ctrls0.rdQLenPdf::14                  2804                       # What read queue length does an incoming req see
system.mem_ctrls0.rdQLenPdf::15                  2560                       # What read queue length does an incoming req see
system.mem_ctrls0.rdQLenPdf::16                  2233                       # What read queue length does an incoming req see
system.mem_ctrls0.rdQLenPdf::17                  2069                       # What read queue length does an incoming req see
system.mem_ctrls0.rdQLenPdf::18                  1792                       # What read queue length does an incoming req see
system.mem_ctrls0.rdQLenPdf::19                  1690                       # What read queue length does an incoming req see
system.mem_ctrls0.rdQLenPdf::20                  1581                       # What read queue length does an incoming req see
system.mem_ctrls0.rdQLenPdf::21                  1457                       # What read queue length does an incoming req see
system.mem_ctrls0.rdQLenPdf::22                  1397                       # What read queue length does an incoming req see
system.mem_ctrls0.rdQLenPdf::23                  1207                       # What read queue length does an incoming req see
system.mem_ctrls0.rdQLenPdf::24                  1025                       # What read queue length does an incoming req see
system.mem_ctrls0.rdQLenPdf::25                  1039                       # What read queue length does an incoming req see
system.mem_ctrls0.rdQLenPdf::26                  1031                       # What read queue length does an incoming req see
system.mem_ctrls0.rdQLenPdf::27                  1008                       # What read queue length does an incoming req see
system.mem_ctrls0.rdQLenPdf::28                   939                       # What read queue length does an incoming req see
system.mem_ctrls0.rdQLenPdf::29                   916                       # What read queue length does an incoming req see
system.mem_ctrls0.rdQLenPdf::30                   990                       # What read queue length does an incoming req see
system.mem_ctrls0.rdQLenPdf::31                 19543                       # What read queue length does an incoming req see
system.mem_ctrls0.wrQLenPdf::0                  18233                       # What write queue length does an incoming req see
system.mem_ctrls0.wrQLenPdf::1                  20522                       # What write queue length does an incoming req see
system.mem_ctrls0.wrQLenPdf::2                  21339                       # What write queue length does an incoming req see
system.mem_ctrls0.wrQLenPdf::3                  21351                       # What write queue length does an incoming req see
system.mem_ctrls0.wrQLenPdf::4                  21371                       # What write queue length does an incoming req see
system.mem_ctrls0.wrQLenPdf::5                   6266                       # What write queue length does an incoming req see
system.mem_ctrls0.wrQLenPdf::6                   6356                       # What write queue length does an incoming req see
system.mem_ctrls0.wrQLenPdf::7                  10407                       # What write queue length does an incoming req see
system.mem_ctrls0.bytesPerActivate::samples        84494                       # Bytes accessed per row activation
system.mem_ctrls0.bytesPerActivate::mean   244.777617                       # Bytes accessed per row activation
system.mem_ctrls0.bytesPerActivate::gmean   173.632860                       # Bytes accessed per row activation
system.mem_ctrls0.bytesPerActivate::stdev   221.383470                       # Bytes accessed per row activation
system.mem_ctrls0.bytesPerActivate::0-127        26020     30.80%     30.80% # Bytes accessed per row activation
system.mem_ctrls0.bytesPerActivate::128-255        22696     26.86%     57.66% # Bytes accessed per row activation
system.mem_ctrls0.bytesPerActivate::256-383        21367     25.29%     82.94% # Bytes accessed per row activation
system.mem_ctrls0.bytesPerActivate::384-511         4798      5.68%     88.62% # Bytes accessed per row activation
system.mem_ctrls0.bytesPerActivate::512-639         3411      4.04%     92.66% # Bytes accessed per row activation
system.mem_ctrls0.bytesPerActivate::640-767         1678      1.99%     94.65% # Bytes accessed per row activation
system.mem_ctrls0.bytesPerActivate::768-895         1122      1.33%     95.97% # Bytes accessed per row activation
system.mem_ctrls0.bytesPerActivate::896-1023          851      1.01%     96.98% # Bytes accessed per row activation
system.mem_ctrls0.bytesPerActivate::1024-1151         2551      3.02%    100.00% # Bytes accessed per row activation
system.mem_ctrls0.bytesPerActivate::total        84494                       # Bytes accessed per row activation
system.mem_ctrls0.rdPerTurnAround::samples        18962                       # Reads before turning the bus around for writes
system.mem_ctrls0.rdPerTurnAround::mean     10.406550                       # Reads before turning the bus around for writes
system.mem_ctrls0.rdPerTurnAround::stdev    30.737431                       # Reads before turning the bus around for writes
system.mem_ctrls0.rdPerTurnAround::0-127        18953     99.95%     99.95% # Reads before turning the bus around for writes
system.mem_ctrls0.rdPerTurnAround::128-255            8      0.04%     99.99% # Reads before turning the bus around for writes
system.mem_ctrls0.rdPerTurnAround::3968-4095            1      0.01%    100.00% # Reads before turning the bus around for writes
system.mem_ctrls0.rdPerTurnAround::total        18962                       # Reads before turning the bus around for writes
system.mem_ctrls0.wrPerTurnAround::samples        18962                       # Writes before turning the bus around for reads
system.mem_ctrls0.wrPerTurnAround::mean      6.636694                       # Writes before turning the bus around for reads
system.mem_ctrls0.wrPerTurnAround::gmean     6.127799                       # Writes before turning the bus around for reads
system.mem_ctrls0.wrPerTurnAround::stdev     3.187876                       # Writes before turning the bus around for reads
system.mem_ctrls0.wrPerTurnAround::4-7          14945     78.82%     78.82% # Writes before turning the bus around for reads
system.mem_ctrls0.wrPerTurnAround::8-11          1920     10.13%     88.94% # Writes before turning the bus around for reads
system.mem_ctrls0.wrPerTurnAround::12-15         1069      5.64%     94.58% # Writes before turning the bus around for reads
system.mem_ctrls0.wrPerTurnAround::16-19         1028      5.42%    100.00% # Writes before turning the bus around for reads
system.mem_ctrls0.wrPerTurnAround::total        18962                       # Writes before turning the bus around for reads
system.mem_ctrls0.totQLat                 19171125006                       # Total ticks spent queuing
system.mem_ctrls0.totMemAccLat            22871043756                       # Total ticks spent from burst creation until serviced by the DRAM
system.mem_ctrls0.totBusLat                 986645000                       # Total ticks spent in databus transfers
system.mem_ctrls0.avgQLat                    97153.10                       # Average queueing delay per DRAM burst
system.mem_ctrls0.avgBusLat                   5000.00                       # Average bus latency per DRAM burst
system.mem_ctrls0.avgMemAccLat              115903.10                       # Average memory access latency per DRAM burst
system.mem_ctrls0.avgRdBW                      220.98                       # Average DRAM read bandwidth in MiByte/s
system.mem_ctrls0.avgWrBW                      140.93                       # Average achieved write bandwidth in MiByte/s
system.mem_ctrls0.avgRdBWSys                   221.01                       # Average system read bandwidth in MiByte/s
system.mem_ctrls0.avgWrBWSys                   140.93                       # Average system write bandwidth in MiByte/s
system.mem_ctrls0.peakBW                     12800.00                       # Theoretical peak bandwidth in MiByte/s
system.mem_ctrls0.busUtil                        2.83                       # Data bus utilization in percentage
system.mem_ctrls0.busUtilRead                    1.73                       # Data bus utilization in percentage for reads
system.mem_ctrls0.busUtilWrite                   1.10                       # Data bus utilization in percentage for writes
system.mem_ctrls0.avgRdQLen                      1.37                       # Average read queue length when enqueuing
system.mem_ctrls0.avgWrQLen                      2.92                       # Average write queue length when enqueuing
system.mem_ctrls0.readRowHits                  153542                       # Number of row buffer hits during reads
system.mem_ctrls0.writeRowHits                  85126                       # Number of row buffer hits during writes
system.mem_ctrls0.readRowHitRate                77.81                       # Row buffer hit rate for reads
system.mem_ctrls0.writeRowHitRate               67.64                       # Row buffer hit rate for writes
system.mem_ctrls0.avgGap                    176826.81                       # Average gap between requests
system.mem_ctrls0.pageHitRate                   73.85                       # Row buffer hit rate, read and write combined
system.mem_ctrls0.memoryStateTime::IDLE   11628257500                       # Time in different power states
system.mem_ctrls0.memoryStateTime::REF     1908140000                       # Time in different power states
system.mem_ctrls0.memoryStateTime::PRE_PDN            0                       # Time in different power states
system.mem_ctrls0.memoryStateTime::ACT    43607219750                       # Time in different power states
system.mem_ctrls0.memoryStateTime::ACT_PDN            0                       # Time in different power states
system.mem_ctrls0.actEnergy::0              321647760                       # Energy for activate commands per rank (pJ)
system.mem_ctrls0.actEnergy::1              316869840                       # Energy for activate commands per rank (pJ)
system.mem_ctrls0.preEnergy::0              175502250                       # Energy for precharge commands per rank (pJ)
system.mem_ctrls0.preEnergy::1              172895250                       # Energy for precharge commands per rank (pJ)
system.mem_ctrls0.readEnergy::0             767153400                       # Energy for read commands per rank (pJ)
system.mem_ctrls0.readEnergy::1             770328000                       # Energy for read commands per rank (pJ)
system.mem_ctrls0.writeEnergy::0            407468880                       # Energy for write commands per rank (pJ)
system.mem_ctrls0.writeEnergy::1            407592000                       # Energy for write commands per rank (pJ)
system.mem_ctrls0.refreshEnergy::0         3732321840                       # Energy for refresh commands per rank (pJ)
system.mem_ctrls0.refreshEnergy::1         3732321840                       # Energy for refresh commands per rank (pJ)
system.mem_ctrls0.actBackEnergy::0        22590404730                       # Energy for active background per rank (pJ)
system.mem_ctrls0.actBackEnergy::1        22069790100                       # Energy for active background per rank (pJ)
system.mem_ctrls0.preBackEnergy::0        14470017750                       # Energy for precharge background per rank (pJ)
system.mem_ctrls0.preBackEnergy::1        14926697250                       # Energy for precharge background per rank (pJ)
system.mem_ctrls0.totalEnergy::0          42464516610                       # Total energy per rank (pJ)
system.mem_ctrls0.totalEnergy::1          42396494280                       # Total energy per rank (pJ)
system.mem_ctrls0.averagePower::0          743.119331                       # Core power per rank (mW)
system.mem_ctrls0.averagePower::1          741.928956                       # Core power per rank (mW)
system.mem_ctrls1.bytes_read::ruby.dir_cntrl1     12402112                       # Number of bytes read from this memory
system.mem_ctrls1.bytes_read::total          12402112                       # Number of bytes read from this memory
system.mem_ctrls1.bytes_written::ruby.dir_cntrl1      7836800                       # Number of bytes written to this memory
system.mem_ctrls1.bytes_written::total        7836800                       # Number of bytes written to this memory
system.mem_ctrls1.num_reads::ruby.dir_cntrl1       193783                       # Number of read requests responded to by this memory
system.mem_ctrls1.num_reads::total             193783                       # Number of read requests responded to by this memory
system.mem_ctrls1.num_writes::ruby.dir_cntrl1       122450                       # Number of write requests responded to by this memory
system.mem_ctrls1.num_writes::total            122450                       # Number of write requests responded to by this memory
system.mem_ctrls1.bw_read::ruby.dir_cntrl1    217007643                       # Total read bandwidth from this memory (bytes/s)
system.mem_ctrls1.bw_read::total            217007643                       # Total read bandwidth from this memory (bytes/s)
system.mem_ctrls1.bw_write::ruby.dir_cntrl1    137125475                       # Write bandwidth from this memory (bytes/s)
system.mem_ctrls1.bw_write::total           137125475                       # Write bandwidth from this memory (bytes/s)
system.mem_ctrls1.bw_total::ruby.dir_cntrl1    354133118                       # Total bandwidth to/from this memory (bytes/s)
system.mem_ctrls1.bw_total::total           354133118                       # Total bandwidth to/from this memory (bytes/s)
system.mem_ctrls1.readReqs                     193783                       # Number of read requests accepted
system.mem_ctrls1.writeReqs                    122450                       # Number of write requests accepted
system.mem_ctrls1.readBursts                   193783                       # Number of DRAM read bursts, including those serviced by the write queue
system.mem_ctrls1.writeBursts                  122450                       # Number of DRAM write bursts, including those merged in the write queue
system.mem_ctrls1.bytesReadDRAM              12400320                       # Total number of bytes read from DRAM
system.mem_ctrls1.bytesReadWrQ                   1792                       # Total number of bytes read from write queue
system.mem_ctrls1.bytesWritten                7836736                       # Total number of bytes written to DRAM
system.mem_ctrls1.bytesReadSys               12402112                       # Total read bytes from the system interface side
system.mem_ctrls1.bytesWrittenSys             7836800                       # Total written bytes from the system interface side
system.mem_ctrls1.servicedByWrQ                    28                       # Number of DRAM read bursts serviced by the write queue
system.mem_ctrls1.mergedWrBursts                    0                       # Number of DRAM write bursts merged with an existing one
system.mem_ctrls1.neitherReadNorWriteReqs            0                       # Number of requests that are neither read nor write
system.mem_ctrls1.perBankRdBursts::0            11875                       # Per bank write bursts
system.mem_ctrls1.perBankRdBursts::1            11970                       # Per bank write bursts
system.mem_ctrls1.perBankRdBursts::2            11831                       # Per bank write bursts
system.mem_ctrls1.perBankRdBursts::3            12216                       # Per bank write bursts
system.mem_ctrls1.perBankRdBursts::4            12005                       # Per bank write bursts
system.mem_ctrls1.perBankRdBursts::5            12104                       # Per bank write bursts
system.mem_ctrls1.perBankRdBursts::6            12307                       # Per bank write bursts
system.mem_ctrls1.perBankRdBursts::7            12458                       # Per bank write bursts
system.mem_ctrls1.perBankRdBursts::8            12178                       # Per bank write bursts
system.mem_ctrls1.perBankRdBursts::9            12561                       # Per bank write bursts
system.mem_ctrls1.perBankRdBursts::10           12197                       # Per bank write bursts
system.mem_ctrls1.perBankRdBursts::11           12533                       # Per bank write bursts
system.mem_ctrls1.perBankRdBursts::12           12007                       # Per bank write bursts
system.mem_ctrls1.perBankRdBursts::13           11797                       # Per bank write bursts
system.mem_ctrls1.perBankRdBursts::14           11987                       # Per bank write bursts
system.mem_ctrls1.perBankRdBursts::15           11729                       # Per bank write bursts
system.mem_ctrls1.perBankWrBursts::0             7601                       # Per bank write bursts
system.mem_ctrls1.perBankWrBursts::1             7483                       # Per bank write bursts
system.mem_ctrls1.perBankWrBursts::2             7628                       # Per bank write bursts
system.mem_ctrls1.perBankWrBursts::3             7630                       # Per bank write bursts
system.mem_ctrls1.perBankWrBursts::4             7608                       # Per bank write bursts
system.mem_ctrls1.perBankWrBursts::5             7718                       # Per bank write bursts
system.mem_ctrls1.perBankWrBursts::6             7777                       # Per bank write bursts
system.mem_ctrls1.perBankWrBursts::7             7842                       # Per bank write bursts
system.mem_ctrls1.perBankWrBursts::8             7725                       # Per bank write bursts
system.mem_ctrls1.perBankWrBursts::9             7860                       # Per bank write bursts
system.mem_ctrls1.perBankWrBursts::10            7674                       # Per bank write bursts
system.mem_ctrls1.perBankWrBursts::11            7716                       # Per bank write bursts
system.mem_ctrls1.perBankWrBursts::12            7551                       # Per bank write bursts
system.mem_ctrls1.perBankWrBursts::13            7603                       # Per bank write bursts
system.mem_ctrls1.perBankWrBursts::14            7604                       # Per bank write bursts
system.mem_ctrls1.perBankWrBursts::15            7429                       # Per bank write bursts
system.mem_ctrls1.numRdRetry                    13816                       # Number of times read queue was full causing retry
system.mem_ctrls1.numWrRetry                     4924                       # Number of times write queue was full causing retry
system.mem_ctrls1.totGap                  57149793500                       # Total gap between requests
system.mem_ctrls1.readPktSize::0                    0                       # Read request sizes (log2)
system.mem_ctrls1.readPktSize::1                    0                       # Read request sizes (log2)
system.mem_ctrls1.readPktSize::2                    0                       # Read request sizes (log2)
system.mem_ctrls1.readPktSize::3                    0                       # Read request sizes (log2)
system.mem_ctrls1.readPktSize::4                    0                       # Read request sizes (log2)
system.mem_ctrls1.readPktSize::5                    0                       # Read request sizes (log2)
system.mem_ctrls1.readPktSize::6               193783                       # Read request sizes (log2)
system.mem_ctrls1.writePktSize::0                   0                       # Write request sizes (log2)
system.mem_ctrls1.writePktSize::1                   0                       # Write request sizes (log2)
system.mem_ctrls1.writePktSize::2                   0                       # Write request sizes (log2)
system.mem_ctrls1.writePktSize::3                   0                       # Write request sizes (log2)
system.mem_ctrls1.writePktSize::4                   0                       # Write request sizes (log2)
system.mem_ctrls1.writePktSize::5                   0                       # Write request sizes (log2)
system.mem_ctrls1.writePktSize::6              122450                       # Write request sizes (log2)
system.mem_ctrls1.rdQLenPdf::0                  73045                       # What read queue length does an incoming req see
system.mem_ctrls1.rdQLenPdf::1                   8675                       # What read queue length does an incoming req see
system.mem_ctrls1.rdQLenPdf::2                   8383                       # What read queue length does an incoming req see
system.mem_ctrls1.rdQLenPdf::3                   8030                       # What read queue length does an incoming req see
system.mem_ctrls1.rdQLenPdf::4                   7550                       # What read queue length does an incoming req see
system.mem_ctrls1.rdQLenPdf::5                   7063                       # What read queue length does an incoming req see
system.mem_ctrls1.rdQLenPdf::6                   6619                       # What read queue length does an incoming req see
system.mem_ctrls1.rdQLenPdf::7                   6176                       # What read queue length does an incoming req see
system.mem_ctrls1.rdQLenPdf::8                   5576                       # What read queue length does an incoming req see
system.mem_ctrls1.rdQLenPdf::9                   5085                       # What read queue length does an incoming req see
system.mem_ctrls1.rdQLenPdf::10                  4452                       # What read queue length does an incoming req see
system.mem_ctrls1.rdQLenPdf::11                  3992                       # What read queue length does an incoming req see
system.mem_ctrls1.rdQLenPdf::12                  3557                       # What read queue length does an incoming req see
system.mem_ctrls1.rdQLenPdf::13                  3189                       # What read queue length does an incoming req see
system.mem_ctrls1.rdQLenPdf::14                  2949                       # What read queue length does an incoming req see
system.mem_ctrls1.rdQLenPdf::15                  2550                       # What read queue length does an incoming req see
system.mem_ctrls1.rdQLenPdf::16                  2281                       # What read queue length does an incoming req see
system.mem_ctrls1.rdQLenPdf::17                  2009                       # What read queue length does an incoming req see
system.mem_ctrls1.rdQLenPdf::18                  1940                       # What read queue length does an incoming req see
system.mem_ctrls1.rdQLenPdf::19                  1745                       # What read queue length does an incoming req see
system.mem_ctrls1.rdQLenPdf::20                  1608                       # What read queue length does an incoming req see
system.mem_ctrls1.rdQLenPdf::21                  1531                       # What read queue length does an incoming req see
system.mem_ctrls1.rdQLenPdf::22                  1446                       # What read queue length does an incoming req see
system.mem_ctrls1.rdQLenPdf::23                  1259                       # What read queue length does an incoming req see
system.mem_ctrls1.rdQLenPdf::24                  1197                       # What read queue length does an incoming req see
system.mem_ctrls1.rdQLenPdf::25                  1150                       # What read queue length does an incoming req see
system.mem_ctrls1.rdQLenPdf::26                  1095                       # What read queue length does an incoming req see
system.mem_ctrls1.rdQLenPdf::27                  1111                       # What read queue length does an incoming req see
system.mem_ctrls1.rdQLenPdf::28                  1095                       # What read queue length does an incoming req see
system.mem_ctrls1.rdQLenPdf::29                  1028                       # What read queue length does an incoming req see
system.mem_ctrls1.rdQLenPdf::30                  1129                       # What read queue length does an incoming req see
system.mem_ctrls1.rdQLenPdf::31                 15240                       # What read queue length does an incoming req see
system.mem_ctrls1.wrQLenPdf::0                  17695                       # What write queue length does an incoming req see
system.mem_ctrls1.wrQLenPdf::1                  19995                       # What write queue length does an incoming req see
system.mem_ctrls1.wrQLenPdf::2                  20687                       # What write queue length does an incoming req see
system.mem_ctrls1.wrQLenPdf::3                  21002                       # What write queue length does an incoming req see
system.mem_ctrls1.wrQLenPdf::4                  21055                       # What write queue length does an incoming req see
system.mem_ctrls1.wrQLenPdf::5                   6245                       # What write queue length does an incoming req see
system.mem_ctrls1.wrQLenPdf::6                   6186                       # What write queue length does an incoming req see
system.mem_ctrls1.wrQLenPdf::7                   9585                       # What write queue length does an incoming req see
system.mem_ctrls1.bytesPerActivate::samples        77717                       # Bytes accessed per row activation
system.mem_ctrls1.bytesPerActivate::mean   260.380200                       # Bytes accessed per row activation
system.mem_ctrls1.bytesPerActivate::gmean   188.305191                       # Bytes accessed per row activation
system.mem_ctrls1.bytesPerActivate::stdev   225.220409                       # Bytes accessed per row activation
system.mem_ctrls1.bytesPerActivate::0-127        19970     25.70%     25.70% # Bytes accessed per row activation
system.mem_ctrls1.bytesPerActivate::128-255        21842     28.10%     53.80% # Bytes accessed per row activation
system.mem_ctrls1.bytesPerActivate::256-383        21565     27.75%     81.55% # Bytes accessed per row activation
system.mem_ctrls1.bytesPerActivate::384-511         4655      5.99%     87.54% # Bytes accessed per row activation
system.mem_ctrls1.bytesPerActivate::512-639         3472      4.47%     92.01% # Bytes accessed per row activation
system.mem_ctrls1.bytesPerActivate::640-767         1628      2.09%     94.10% # Bytes accessed per row activation
system.mem_ctrls1.bytesPerActivate::768-895         1153      1.48%     95.58% # Bytes accessed per row activation
system.mem_ctrls1.bytesPerActivate::896-1023          817      1.05%     96.64% # Bytes accessed per row activation
system.mem_ctrls1.bytesPerActivate::1024-1151         2615      3.36%    100.00% # Bytes accessed per row activation
system.mem_ctrls1.bytesPerActivate::total        77717                       # Bytes accessed per row activation
system.mem_ctrls1.rdPerTurnAround::samples        18413                       # Reads before turning the bus around for writes
system.mem_ctrls1.rdPerTurnAround::mean     10.522674                       # Reads before turning the bus around for writes
system.mem_ctrls1.rdPerTurnAround::stdev    25.286337                       # Reads before turning the bus around for writes
system.mem_ctrls1.rdPerTurnAround::0-127        18406     99.96%     99.96% # Reads before turning the bus around for writes
system.mem_ctrls1.rdPerTurnAround::128-255            5      0.03%     99.99% # Reads before turning the bus around for writes
system.mem_ctrls1.rdPerTurnAround::1152-1279            1      0.01%     99.99% # Reads before turning the bus around for writes
system.mem_ctrls1.rdPerTurnAround::2816-2943            1      0.01%    100.00% # Reads before turning the bus around for writes
system.mem_ctrls1.rdPerTurnAround::total        18413                       # Reads before turning the bus around for writes
system.mem_ctrls1.wrPerTurnAround::samples        18413                       # Writes before turning the bus around for reads
system.mem_ctrls1.wrPerTurnAround::mean      6.650138                       # Writes before turning the bus around for reads
system.mem_ctrls1.wrPerTurnAround::gmean     6.140282                       # Writes before turning the bus around for reads
system.mem_ctrls1.wrPerTurnAround::stdev     3.179767                       # Writes before turning the bus around for reads
system.mem_ctrls1.wrPerTurnAround::4-7          14336     77.86%     77.86% # Writes before turning the bus around for reads
system.mem_ctrls1.wrPerTurnAround::8-11          2047     11.12%     88.98% # Writes before turning the bus around for reads
system.mem_ctrls1.wrPerTurnAround::12-15         1051      5.71%     94.68% # Writes before turning the bus around for reads
system.mem_ctrls1.wrPerTurnAround::16-19          979      5.32%    100.00% # Writes before turning the bus around for reads
system.mem_ctrls1.wrPerTurnAround::total        18413                       # Writes before turning the bus around for reads
system.mem_ctrls1.totQLat                 17872125189                       # Total ticks spent queuing
system.mem_ctrls1.totMemAccLat            21505031439                       # Total ticks spent from burst creation until serviced by the DRAM
system.mem_ctrls1.totBusLat                 968775000                       # Total ticks spent in databus transfers
system.mem_ctrls1.avgQLat                    92240.85                       # Average queueing delay per DRAM burst
system.mem_ctrls1.avgBusLat                   5000.00                       # Average bus latency per DRAM burst
system.mem_ctrls1.avgMemAccLat              110990.85                       # Average memory access latency per DRAM burst
system.mem_ctrls1.avgRdBW                      216.98                       # Average DRAM read bandwidth in MiByte/s
system.mem_ctrls1.avgWrBW                      137.12                       # Average achieved write bandwidth in MiByte/s
system.mem_ctrls1.avgRdBWSys                   217.01                       # Average system read bandwidth in MiByte/s
system.mem_ctrls1.avgWrBWSys                   137.13                       # Average system write bandwidth in MiByte/s
system.mem_ctrls1.peakBW                     12800.00                       # Theoretical peak bandwidth in MiByte/s
system.mem_ctrls1.busUtil                        2.77                       # Data bus utilization in percentage
system.mem_ctrls1.busUtilRead                    1.70                       # Data bus utilization in percentage for reads
system.mem_ctrls1.busUtilWrite                   1.07                       # Data bus utilization in percentage for writes
system.mem_ctrls1.avgRdQLen                      1.35                       # Average read queue length when enqueuing
system.mem_ctrls1.avgWrQLen                      2.96                       # Average write queue length when enqueuing
system.mem_ctrls1.readRowHits                  152062                       # Number of row buffer hits during reads
system.mem_ctrls1.writeRowHits                  86415                       # Number of row buffer hits during writes
system.mem_ctrls1.readRowHitRate                78.48                       # Row buffer hit rate for reads
system.mem_ctrls1.writeRowHitRate               70.57                       # Row buffer hit rate for writes
system.mem_ctrls1.avgGap                    180720.52                       # Average gap between requests
system.mem_ctrls1.pageHitRate                   75.42                       # Row buffer hit rate, read and write combined
system.mem_ctrls1.memoryStateTime::IDLE   11893769500                       # Time in different power states
system.mem_ctrls1.memoryStateTime::REF     1908140000                       # Time in different power states
system.mem_ctrls1.memoryStateTime::PRE_PDN            0                       # Time in different power states
system.mem_ctrls1.memoryStateTime::ACT    43341727250                       # Time in different power states
system.mem_ctrls1.memoryStateTime::ACT_PDN            0                       # Time in different power states
system.mem_ctrls1.actEnergy::0              297017280                       # Energy for activate commands per rank (pJ)
system.mem_ctrls1.actEnergy::1              290304000                       # Energy for activate commands per rank (pJ)
system.mem_ctrls1.preEnergy::0              162063000                       # Energy for precharge commands per rank (pJ)
system.mem_ctrls1.preEnergy::1              158400000                       # Energy for precharge commands per rank (pJ)
system.mem_ctrls1.readEnergy::0             753955800                       # Energy for read commands per rank (pJ)
system.mem_ctrls1.readEnergy::1             755695200                       # Energy for read commands per rank (pJ)
system.mem_ctrls1.writeEnergy::0            396770400                       # Energy for write commands per rank (pJ)
system.mem_ctrls1.writeEnergy::1            396264960                       # Energy for write commands per rank (pJ)
system.mem_ctrls1.refreshEnergy::0         3732321840                       # Energy for refresh commands per rank (pJ)
system.mem_ctrls1.refreshEnergy::1         3732321840                       # Energy for refresh commands per rank (pJ)
system.mem_ctrls1.actBackEnergy::0        22367410470                       # Energy for active background per rank (pJ)
system.mem_ctrls1.actBackEnergy::1        21810160800                       # Energy for active background per rank (pJ)
system.mem_ctrls1.preBackEnergy::0        14665638750                       # Energy for precharge background per rank (pJ)
system.mem_ctrls1.preBackEnergy::1        15154454250                       # Energy for precharge background per rank (pJ)
system.mem_ctrls1.totalEnergy::0          42375177540                       # Total energy per rank (pJ)
system.mem_ctrls1.totalEnergy::1          42297601050                       # Total energy per rank (pJ)
system.mem_ctrls1.averagePower::0          741.555659                       # Core power per rank (mW)
system.mem_ctrls1.averagePower::1          740.198088                       # Core power per rank (mW)
system.mem_ctrls2.bytes_read::ruby.dir_cntrl2     12402944                       # Number of bytes read from this memory
system.mem_ctrls2.bytes_read::total          12402944                       # Number of bytes read from this memory
system.mem_ctrls2.bytes_written::ruby.dir_cntrl2      7836864                       # Number of bytes written to this memory
system.mem_ctrls2.bytes_written::total        7836864                       # Number of bytes written to this memory
system.mem_ctrls2.num_reads::ruby.dir_cntrl2       193796                       # Number of read requests responded to by this memory
system.mem_ctrls2.num_reads::total             193796                       # Number of read requests responded to by this memory
system.mem_ctrls2.num_writes::ruby.dir_cntrl2       122451                       # Number of write requests responded to by this memory
system.mem_ctrls2.num_writes::total            122451                       # Number of write requests responded to by this memory
system.mem_ctrls2.bw_read::ruby.dir_cntrl2    217022201                       # Total read bandwidth from this memory (bytes/s)
system.mem_ctrls2.bw_read::total            217022201                       # Total read bandwidth from this memory (bytes/s)
system.mem_ctrls2.bw_write::ruby.dir_cntrl2    137126595                       # Write bandwidth from this memory (bytes/s)
system.mem_ctrls2.bw_write::total           137126595                       # Write bandwidth from this memory (bytes/s)
system.mem_ctrls2.bw_total::ruby.dir_cntrl2    354148795                       # Total bandwidth to/from this memory (bytes/s)
system.mem_ctrls2.bw_total::total           354148795                       # Total bandwidth to/from this memory (bytes/s)
system.mem_ctrls2.readReqs                     193796                       # Number of read requests accepted
system.mem_ctrls2.writeReqs                    122451                       # Number of write requests accepted
system.mem_ctrls2.readBursts                   193796                       # Number of DRAM read bursts, including those serviced by the write queue
system.mem_ctrls2.writeBursts                  122451                       # Number of DRAM write bursts, including those merged in the write queue
system.mem_ctrls2.bytesReadDRAM              12401600                       # Total number of bytes read from DRAM
system.mem_ctrls2.bytesReadWrQ                   1344                       # Total number of bytes read from write queue
system.mem_ctrls2.bytesWritten                7836736                       # Total number of bytes written to DRAM
system.mem_ctrls2.bytesReadSys               12402944                       # Total read bytes from the system interface side
system.mem_ctrls2.bytesWrittenSys             7836864                       # Total written bytes from the system interface side
system.mem_ctrls2.servicedByWrQ                    21                       # Number of DRAM read bursts serviced by the write queue
system.mem_ctrls2.mergedWrBursts                    0                       # Number of DRAM write bursts merged with an existing one
system.mem_ctrls2.neitherReadNorWriteReqs            0                       # Number of requests that are neither read nor write
system.mem_ctrls2.perBankRdBursts::0            11872                       # Per bank write bursts
system.mem_ctrls2.perBankRdBursts::1            11999                       # Per bank write bursts
system.mem_ctrls2.perBankRdBursts::2            11856                       # Per bank write bursts
system.mem_ctrls2.perBankRdBursts::3            12257                       # Per bank write bursts
system.mem_ctrls2.perBankRdBursts::4            12012                       # Per bank write bursts
system.mem_ctrls2.perBankRdBursts::5            12083                       # Per bank write bursts
system.mem_ctrls2.perBankRdBursts::6            12277                       # Per bank write bursts
system.mem_ctrls2.perBankRdBursts::7            12458                       # Per bank write bursts
system.mem_ctrls2.perBankRdBursts::8            12168                       # Per bank write bursts
system.mem_ctrls2.perBankRdBursts::9            12542                       # Per bank write bursts
system.mem_ctrls2.perBankRdBursts::10           12206                       # Per bank write bursts
system.mem_ctrls2.perBankRdBursts::11           12573                       # Per bank write bursts
system.mem_ctrls2.perBankRdBursts::12           12008                       # Per bank write bursts
system.mem_ctrls2.perBankRdBursts::13           11759                       # Per bank write bursts
system.mem_ctrls2.perBankRdBursts::14           11974                       # Per bank write bursts
system.mem_ctrls2.perBankRdBursts::15           11731                       # Per bank write bursts
system.mem_ctrls2.perBankWrBursts::0             7594                       # Per bank write bursts
system.mem_ctrls2.perBankWrBursts::1             7482                       # Per bank write bursts
system.mem_ctrls2.perBankWrBursts::2             7628                       # Per bank write bursts
system.mem_ctrls2.perBankWrBursts::3             7641                       # Per bank write bursts
system.mem_ctrls2.perBankWrBursts::4             7604                       # Per bank write bursts
system.mem_ctrls2.perBankWrBursts::5             7700                       # Per bank write bursts
system.mem_ctrls2.perBankWrBursts::6             7771                       # Per bank write bursts
system.mem_ctrls2.perBankWrBursts::7             7851                       # Per bank write bursts
system.mem_ctrls2.perBankWrBursts::8             7727                       # Per bank write bursts
system.mem_ctrls2.perBankWrBursts::9             7860                       # Per bank write bursts
system.mem_ctrls2.perBankWrBursts::10            7674                       # Per bank write bursts
system.mem_ctrls2.perBankWrBursts::11            7726                       # Per bank write bursts
system.mem_ctrls2.perBankWrBursts::12            7557                       # Per bank write bursts
system.mem_ctrls2.perBankWrBursts::13            7593                       # Per bank write bursts
system.mem_ctrls2.perBankWrBursts::14            7609                       # Per bank write bursts
system.mem_ctrls2.perBankWrBursts::15            7432                       # Per bank write bursts
system.mem_ctrls2.numRdRetry                    14668                       # Number of times read queue was full causing retry
system.mem_ctrls2.numWrRetry                     5155                       # Number of times write queue was full causing retry
system.mem_ctrls2.totGap                  57150418500                       # Total gap between requests
system.mem_ctrls2.readPktSize::0                    0                       # Read request sizes (log2)
system.mem_ctrls2.readPktSize::1                    0                       # Read request sizes (log2)
system.mem_ctrls2.readPktSize::2                    0                       # Read request sizes (log2)
system.mem_ctrls2.readPktSize::3                    0                       # Read request sizes (log2)
system.mem_ctrls2.readPktSize::4                    0                       # Read request sizes (log2)
system.mem_ctrls2.readPktSize::5                    0                       # Read request sizes (log2)
system.mem_ctrls2.readPktSize::6               193796                       # Read request sizes (log2)
system.mem_ctrls2.writePktSize::0                   0                       # Write request sizes (log2)
system.mem_ctrls2.writePktSize::1                   0                       # Write request sizes (log2)
system.mem_ctrls2.writePktSize::2                   0                       # Write request sizes (log2)
system.mem_ctrls2.writePktSize::3                   0                       # Write request sizes (log2)
system.mem_ctrls2.writePktSize::4                   0                       # Write request sizes (log2)
system.mem_ctrls2.writePktSize::5                   0                       # Write request sizes (log2)
system.mem_ctrls2.writePktSize::6              122451                       # Write request sizes (log2)
system.mem_ctrls2.rdQLenPdf::0                  72970                       # What read queue length does an incoming req see
system.mem_ctrls2.rdQLenPdf::1                   8658                       # What read queue length does an incoming req see
system.mem_ctrls2.rdQLenPdf::2                   8401                       # What read queue length does an incoming req see
system.mem_ctrls2.rdQLenPdf::3                   7792                       # What read queue length does an incoming req see
system.mem_ctrls2.rdQLenPdf::4                   7462                       # What read queue length does an incoming req see
system.mem_ctrls2.rdQLenPdf::5                   7009                       # What read queue length does an incoming req see
system.mem_ctrls2.rdQLenPdf::6                   6594                       # What read queue length does an incoming req see
system.mem_ctrls2.rdQLenPdf::7                   6011                       # What read queue length does an incoming req see
system.mem_ctrls2.rdQLenPdf::8                   5398                       # What read queue length does an incoming req see
system.mem_ctrls2.rdQLenPdf::9                   4966                       # What read queue length does an incoming req see
system.mem_ctrls2.rdQLenPdf::10                  4516                       # What read queue length does an incoming req see
system.mem_ctrls2.rdQLenPdf::11                  3893                       # What read queue length does an incoming req see
system.mem_ctrls2.rdQLenPdf::12                  3551                       # What read queue length does an incoming req see
system.mem_ctrls2.rdQLenPdf::13                  3095                       # What read queue length does an incoming req see
system.mem_ctrls2.rdQLenPdf::14                  2869                       # What read queue length does an incoming req see
system.mem_ctrls2.rdQLenPdf::15                  2520                       # What read queue length does an incoming req see
system.mem_ctrls2.rdQLenPdf::16                  2436                       # What read queue length does an incoming req see
system.mem_ctrls2.rdQLenPdf::17                  2123                       # What read queue length does an incoming req see
system.mem_ctrls2.rdQLenPdf::18                  1955                       # What read queue length does an incoming req see
system.mem_ctrls2.rdQLenPdf::19                  1751                       # What read queue length does an incoming req see
system.mem_ctrls2.rdQLenPdf::20                  1629                       # What read queue length does an incoming req see
system.mem_ctrls2.rdQLenPdf::21                  1432                       # What read queue length does an incoming req see
system.mem_ctrls2.rdQLenPdf::22                  1368                       # What read queue length does an incoming req see
system.mem_ctrls2.rdQLenPdf::23                  1254                       # What read queue length does an incoming req see
system.mem_ctrls2.rdQLenPdf::24                  1252                       # What read queue length does an incoming req see
system.mem_ctrls2.rdQLenPdf::25                  1160                       # What read queue length does an incoming req see
system.mem_ctrls2.rdQLenPdf::26                  1087                       # What read queue length does an incoming req see
system.mem_ctrls2.rdQLenPdf::27                  1121                       # What read queue length does an incoming req see
system.mem_ctrls2.rdQLenPdf::28                  1044                       # What read queue length does an incoming req see
system.mem_ctrls2.rdQLenPdf::29                  1105                       # What read queue length does an incoming req see
system.mem_ctrls2.rdQLenPdf::30                  1121                       # What read queue length does an incoming req see
system.mem_ctrls2.rdQLenPdf::31                 16232                       # What read queue length does an incoming req see
system.mem_ctrls2.wrQLenPdf::0                  17647                       # What write queue length does an incoming req see
system.mem_ctrls2.wrQLenPdf::1                  19849                       # What write queue length does an incoming req see
system.mem_ctrls2.wrQLenPdf::2                  20731                       # What write queue length does an incoming req see
system.mem_ctrls2.wrQLenPdf::3                  20880                       # What write queue length does an incoming req see
system.mem_ctrls2.wrQLenPdf::4                  20900                       # What write queue length does an incoming req see
system.mem_ctrls2.wrQLenPdf::5                   6228                       # What write queue length does an incoming req see
system.mem_ctrls2.wrQLenPdf::6                   6341                       # What write queue length does an incoming req see
system.mem_ctrls2.wrQLenPdf::7                   9875                       # What write queue length does an incoming req see
system.mem_ctrls2.bytesPerActivate::samples        77419                       # Bytes accessed per row activation
system.mem_ctrls2.bytesPerActivate::mean   261.389065                       # Bytes accessed per row activation
system.mem_ctrls2.bytesPerActivate::gmean   189.450336                       # Bytes accessed per row activation
system.mem_ctrls2.bytesPerActivate::stdev   224.995894                       # Bytes accessed per row activation
system.mem_ctrls2.bytesPerActivate::0-127        19573     25.28%     25.28% # Bytes accessed per row activation
system.mem_ctrls2.bytesPerActivate::128-255        21680     28.00%     53.29% # Bytes accessed per row activation
system.mem_ctrls2.bytesPerActivate::256-383        21825     28.19%     81.48% # Bytes accessed per row activation
system.mem_ctrls2.bytesPerActivate::384-511         4671      6.03%     87.51% # Bytes accessed per row activation
system.mem_ctrls2.bytesPerActivate::512-639         3498      4.52%     92.03% # Bytes accessed per row activation
system.mem_ctrls2.bytesPerActivate::640-767         1608      2.08%     94.10% # Bytes accessed per row activation
system.mem_ctrls2.bytesPerActivate::768-895         1136      1.47%     95.57% # Bytes accessed per row activation
system.mem_ctrls2.bytesPerActivate::896-1023          807      1.04%     96.61% # Bytes accessed per row activation
system.mem_ctrls2.bytesPerActivate::1024-1151         2621      3.39%    100.00% # Bytes accessed per row activation
system.mem_ctrls2.bytesPerActivate::total        77419                       # Bytes accessed per row activation
system.mem_ctrls2.rdPerTurnAround::samples        18370                       # Reads before turning the bus around for writes
system.mem_ctrls2.rdPerTurnAround::mean     10.548285                       # Reads before turning the bus around for writes
system.mem_ctrls2.rdPerTurnAround::stdev    25.359987                       # Reads before turning the bus around for writes
system.mem_ctrls2.rdPerTurnAround::0-127        18365     99.97%     99.97% # Reads before turning the bus around for writes
system.mem_ctrls2.rdPerTurnAround::128-255            3      0.02%     99.99% # Reads before turning the bus around for writes
system.mem_ctrls2.rdPerTurnAround::1152-1279            1      0.01%     99.99% # Reads before turning the bus around for writes
system.mem_ctrls2.rdPerTurnAround::2816-2943            1      0.01%    100.00% # Reads before turning the bus around for writes
system.mem_ctrls2.rdPerTurnAround::total        18370                       # Reads before turning the bus around for writes
system.mem_ctrls2.wrPerTurnAround::samples        18370                       # Writes before turning the bus around for reads
system.mem_ctrls2.wrPerTurnAround::mean      6.665705                       # Writes before turning the bus around for reads
system.mem_ctrls2.wrPerTurnAround::gmean     6.147265                       # Writes before turning the bus around for reads
system.mem_ctrls2.wrPerTurnAround::stdev     3.208304                       # Writes before turning the bus around for reads
system.mem_ctrls2.wrPerTurnAround::4-7          14280     77.74%     77.74% # Writes before turning the bus around for reads
system.mem_ctrls2.wrPerTurnAround::8-11          2018     10.99%     88.72% # Writes before turning the bus around for reads
system.mem_ctrls2.wrPerTurnAround::12-15         1071      5.83%     94.55% # Writes before turning the bus around for reads
system.mem_ctrls2.wrPerTurnAround::16-19         1001      5.45%    100.00% # Writes before turning the bus around for reads
system.mem_ctrls2.wrPerTurnAround::total        18370                       # Writes before turning the bus around for reads
system.mem_ctrls2.totQLat                 18205881538                       # Total ticks spent queuing
system.mem_ctrls2.totMemAccLat            21839162788                       # Total ticks spent from burst creation until serviced by the DRAM
system.mem_ctrls2.totBusLat                 968875000                       # Total ticks spent in databus transfers
system.mem_ctrls2.avgQLat                    93953.72                       # Average queueing delay per DRAM burst
system.mem_ctrls2.avgBusLat                   5000.00                       # Average bus latency per DRAM burst
system.mem_ctrls2.avgMemAccLat              112703.72                       # Average memory access latency per DRAM burst
system.mem_ctrls2.avgRdBW                      217.00                       # Average DRAM read bandwidth in MiByte/s
system.mem_ctrls2.avgWrBW                      137.12                       # Average achieved write bandwidth in MiByte/s
system.mem_ctrls2.avgRdBWSys                   217.02                       # Average system read bandwidth in MiByte/s
system.mem_ctrls2.avgWrBWSys                   137.13                       # Average system write bandwidth in MiByte/s
system.mem_ctrls2.peakBW                     12800.00                       # Theoretical peak bandwidth in MiByte/s
system.mem_ctrls2.busUtil                        2.77                       # Data bus utilization in percentage
system.mem_ctrls2.busUtilRead                    1.70                       # Data bus utilization in percentage for reads
system.mem_ctrls2.busUtilWrite                   1.07                       # Data bus utilization in percentage for writes
system.mem_ctrls2.avgRdQLen                      1.35                       # Average read queue length when enqueuing
system.mem_ctrls2.avgWrQLen                      2.92                       # Average write queue length when enqueuing
system.mem_ctrls2.readRowHits                  152144                       # Number of row buffer hits during reads
system.mem_ctrls2.writeRowHits                  86651                       # Number of row buffer hits during writes
system.mem_ctrls2.readRowHitRate                78.52                       # Row buffer hit rate for reads
system.mem_ctrls2.writeRowHitRate               70.76                       # Row buffer hit rate for writes
system.mem_ctrls2.avgGap                    180714.50                       # Average gap between requests
system.mem_ctrls2.pageHitRate                   75.51                       # Row buffer hit rate, read and write combined
system.mem_ctrls2.memoryStateTime::IDLE   11876819000                       # Time in different power states
system.mem_ctrls2.memoryStateTime::REF     1908140000                       # Time in different power states
system.mem_ctrls2.memoryStateTime::PRE_PDN            0                       # Time in different power states
system.mem_ctrls2.memoryStateTime::ACT    43358638500                       # Time in different power states
system.mem_ctrls2.memoryStateTime::ACT_PDN            0                       # Time in different power states
system.mem_ctrls2.actEnergy::0              294318360                       # Energy for activate commands per rank (pJ)
system.mem_ctrls2.actEnergy::1              290734920                       # Energy for activate commands per rank (pJ)
system.mem_ctrls2.preEnergy::0              160590375                       # Energy for precharge commands per rank (pJ)
system.mem_ctrls2.preEnergy::1              158635125                       # Energy for precharge commands per rank (pJ)
system.mem_ctrls2.readEnergy::0             754322400                       # Energy for read commands per rank (pJ)
system.mem_ctrls2.readEnergy::1             755484600                       # Energy for read commands per rank (pJ)
system.mem_ctrls2.writeEnergy::0            396673200                       # Energy for write commands per rank (pJ)
system.mem_ctrls2.writeEnergy::1            396375120                       # Energy for write commands per rank (pJ)
system.mem_ctrls2.refreshEnergy::0         3732321840                       # Energy for refresh commands per rank (pJ)
system.mem_ctrls2.refreshEnergy::1         3732321840                       # Energy for refresh commands per rank (pJ)
system.mem_ctrls2.actBackEnergy::0        22118226705                       # Energy for active background per rank (pJ)
system.mem_ctrls2.actBackEnergy::1        21616870950                       # Energy for active background per rank (pJ)
system.mem_ctrls2.preBackEnergy::0        14884197000                       # Energy for precharge background per rank (pJ)
system.mem_ctrls2.preBackEnergy::1        15323982750                       # Energy for precharge background per rank (pJ)
system.mem_ctrls2.totalEnergy::0          42340649880                       # Total energy per rank (pJ)
system.mem_ctrls2.totalEnergy::1          42274405305                       # Total energy per rank (pJ)
system.mem_ctrls2.averagePower::0          740.951951                       # Core power per rank (mW)
system.mem_ctrls2.averagePower::1          739.792686                       # Core power per rank (mW)
system.mem_ctrls3.bytes_read::ruby.dir_cntrl3     12382400                       # Number of bytes read from this memory
system.mem_ctrls3.bytes_read::total          12382400                       # Number of bytes read from this memory
system.mem_ctrls3.bytes_written::ruby.dir_cntrl3      7835328                       # Number of bytes written to this memory
system.mem_ctrls3.bytes_written::total        7835328                       # Number of bytes written to this memory
system.mem_ctrls3.num_reads::ruby.dir_cntrl3       193475                       # Number of read requests responded to by this memory
system.mem_ctrls3.num_reads::total             193475                       # Number of read requests responded to by this memory
system.mem_ctrls3.num_writes::ruby.dir_cntrl3       122427                       # Number of write requests responded to by this memory
system.mem_ctrls3.num_writes::total            122427                       # Number of write requests responded to by this memory
system.mem_ctrls3.bw_read::ruby.dir_cntrl3    216662729                       # Total read bandwidth from this memory (bytes/s)
system.mem_ctrls3.bw_read::total            216662729                       # Total read bandwidth from this memory (bytes/s)
system.mem_ctrls3.bw_write::ruby.dir_cntrl3    137099718                       # Write bandwidth from this memory (bytes/s)
system.mem_ctrls3.bw_write::total           137099718                       # Write bandwidth from this memory (bytes/s)
system.mem_ctrls3.bw_total::ruby.dir_cntrl3    353762448                       # Total bandwidth to/from this memory (bytes/s)
system.mem_ctrls3.bw_total::total           353762448                       # Total bandwidth to/from this memory (bytes/s)
system.mem_ctrls3.readReqs                     193475                       # Number of read requests accepted
system.mem_ctrls3.writeReqs                    122427                       # Number of write requests accepted
system.mem_ctrls3.readBursts                   193475                       # Number of DRAM read bursts, including those serviced by the write queue
system.mem_ctrls3.writeBursts                  122427                       # Number of DRAM write bursts, including those merged in the write queue
system.mem_ctrls3.bytesReadDRAM              12381568                       # Total number of bytes read from DRAM
system.mem_ctrls3.bytesReadWrQ                    832                       # Total number of bytes read from write queue
system.mem_ctrls3.bytesWritten                7835072                       # Total number of bytes written to DRAM
system.mem_ctrls3.bytesReadSys               12382400                       # Total read bytes from the system interface side
system.mem_ctrls3.bytesWrittenSys             7835328                       # Total written bytes from the system interface side
system.mem_ctrls3.servicedByWrQ                    13                       # Number of DRAM read bursts serviced by the write queue
system.mem_ctrls3.mergedWrBursts                    0                       # Number of DRAM write bursts merged with an existing one
system.mem_ctrls3.neitherReadNorWriteReqs            0                       # Number of requests that are neither read nor write
system.mem_ctrls3.perBankRdBursts::0            11859                       # Per bank write bursts
system.mem_ctrls3.perBankRdBursts::1            11954                       # Per bank write bursts
system.mem_ctrls3.perBankRdBursts::2            11796                       # Per bank write bursts
system.mem_ctrls3.perBankRdBursts::3            12214                       # Per bank write bursts
system.mem_ctrls3.perBankRdBursts::4            11962                       # Per bank write bursts
system.mem_ctrls3.perBankRdBursts::5            12060                       # Per bank write bursts
system.mem_ctrls3.perBankRdBursts::6            12260                       # Per bank write bursts
system.mem_ctrls3.perBankRdBursts::7            12452                       # Per bank write bursts
system.mem_ctrls3.perBankRdBursts::8            12172                       # Per bank write bursts
system.mem_ctrls3.perBankRdBursts::9            12536                       # Per bank write bursts
system.mem_ctrls3.perBankRdBursts::10           12233                       # Per bank write bursts
system.mem_ctrls3.perBankRdBursts::11           12503                       # Per bank write bursts
system.mem_ctrls3.perBankRdBursts::12           11995                       # Per bank write bursts
system.mem_ctrls3.perBankRdBursts::13           11755                       # Per bank write bursts
system.mem_ctrls3.perBankRdBursts::14           11987                       # Per bank write bursts
system.mem_ctrls3.perBankRdBursts::15           11724                       # Per bank write bursts
system.mem_ctrls3.perBankWrBursts::0             7600                       # Per bank write bursts
system.mem_ctrls3.perBankWrBursts::1             7470                       # Per bank write bursts
system.mem_ctrls3.perBankWrBursts::2             7626                       # Per bank write bursts
system.mem_ctrls3.perBankWrBursts::3             7629                       # Per bank write bursts
system.mem_ctrls3.perBankWrBursts::4             7599                       # Per bank write bursts
system.mem_ctrls3.perBankWrBursts::5             7704                       # Per bank write bursts
system.mem_ctrls3.perBankWrBursts::6             7772                       # Per bank write bursts
system.mem_ctrls3.perBankWrBursts::7             7842                       # Per bank write bursts
system.mem_ctrls3.perBankWrBursts::8             7727                       # Per bank write bursts
system.mem_ctrls3.perBankWrBursts::9             7862                       # Per bank write bursts
system.mem_ctrls3.perBankWrBursts::10            7677                       # Per bank write bursts
system.mem_ctrls3.perBankWrBursts::11            7734                       # Per bank write bursts
system.mem_ctrls3.perBankWrBursts::12            7554                       # Per bank write bursts
system.mem_ctrls3.perBankWrBursts::13            7600                       # Per bank write bursts
system.mem_ctrls3.perBankWrBursts::14            7604                       # Per bank write bursts
system.mem_ctrls3.perBankWrBursts::15            7423                       # Per bank write bursts
system.mem_ctrls3.numRdRetry                    14337                       # Number of times read queue was full causing retry
system.mem_ctrls3.numWrRetry                     5058                       # Number of times write queue was full causing retry
system.mem_ctrls3.totGap                  57149519000                       # Total gap between requests
system.mem_ctrls3.readPktSize::0                    0                       # Read request sizes (log2)
system.mem_ctrls3.readPktSize::1                    0                       # Read request sizes (log2)
system.mem_ctrls3.readPktSize::2                    0                       # Read request sizes (log2)
system.mem_ctrls3.readPktSize::3                    0                       # Read request sizes (log2)
system.mem_ctrls3.readPktSize::4                    0                       # Read request sizes (log2)
system.mem_ctrls3.readPktSize::5                    0                       # Read request sizes (log2)
system.mem_ctrls3.readPktSize::6               193475                       # Read request sizes (log2)
system.mem_ctrls3.writePktSize::0                   0                       # Write request sizes (log2)
system.mem_ctrls3.writePktSize::1                   0                       # Write request sizes (log2)
system.mem_ctrls3.writePktSize::2                   0                       # Write request sizes (log2)
system.mem_ctrls3.writePktSize::3                   0                       # Write request sizes (log2)
system.mem_ctrls3.writePktSize::4                   0                       # Write request sizes (log2)
system.mem_ctrls3.writePktSize::5                   0                       # Write request sizes (log2)
system.mem_ctrls3.writePktSize::6              122427                       # Write request sizes (log2)
system.mem_ctrls3.rdQLenPdf::0                  72798                       # What read queue length does an incoming req see
system.mem_ctrls3.rdQLenPdf::1                   8524                       # What read queue length does an incoming req see
system.mem_ctrls3.rdQLenPdf::2                   8275                       # What read queue length does an incoming req see
system.mem_ctrls3.rdQLenPdf::3                   8059                       # What read queue length does an incoming req see
system.mem_ctrls3.rdQLenPdf::4                   7651                       # What read queue length does an incoming req see
system.mem_ctrls3.rdQLenPdf::5                   7297                       # What read queue length does an incoming req see
system.mem_ctrls3.rdQLenPdf::6                   6854                       # What read queue length does an incoming req see
system.mem_ctrls3.rdQLenPdf::7                   6170                       # What read queue length does an incoming req see
system.mem_ctrls3.rdQLenPdf::8                   5634                       # What read queue length does an incoming req see
system.mem_ctrls3.rdQLenPdf::9                   5092                       # What read queue length does an incoming req see
system.mem_ctrls3.rdQLenPdf::10                  4553                       # What read queue length does an incoming req see
system.mem_ctrls3.rdQLenPdf::11                  3877                       # What read queue length does an incoming req see
system.mem_ctrls3.rdQLenPdf::12                  3454                       # What read queue length does an incoming req see
system.mem_ctrls3.rdQLenPdf::13                  3181                       # What read queue length does an incoming req see
system.mem_ctrls3.rdQLenPdf::14                  2805                       # What read queue length does an incoming req see
system.mem_ctrls3.rdQLenPdf::15                  2531                       # What read queue length does an incoming req see
system.mem_ctrls3.rdQLenPdf::16                  2196                       # What read queue length does an incoming req see
system.mem_ctrls3.rdQLenPdf::17                  2111                       # What read queue length does an incoming req see
system.mem_ctrls3.rdQLenPdf::18                  1959                       # What read queue length does an incoming req see
system.mem_ctrls3.rdQLenPdf::19                  1755                       # What read queue length does an incoming req see
system.mem_ctrls3.rdQLenPdf::20                  1608                       # What read queue length does an incoming req see
system.mem_ctrls3.rdQLenPdf::21                  1475                       # What read queue length does an incoming req see
system.mem_ctrls3.rdQLenPdf::22                  1393                       # What read queue length does an incoming req see
system.mem_ctrls3.rdQLenPdf::23                  1241                       # What read queue length does an incoming req see
system.mem_ctrls3.rdQLenPdf::24                  1122                       # What read queue length does an incoming req see
[...]
system.ruby.L2Cache_Controller.ISS.Mem_Data::total       288160                      
system.ruby.L2Cache_Controller.IS.Mem_Data |         451      3.34%      3.34% |         421      3.12%      6.46% |         415      3.07%      9.53% |         404      2.99%     12.52% |         410      3.04%     15.55% |         401      2.97%     18.52% |         414      3.06%     21.59% |         418      3.09%     24.68% |         407      3.01%     27.69% |         417      3.09%     30.78% |         443      3.28%     34.06% |         437      3.24%     37.30% |         450      3.33%     40.63% |         428      3.17%     43.80% |         448      3.32%     47.11% |         440      3.26%     50.37% |         449      3.32%     53.69% |         440      3.26%     56.95% |         434      3.21%     60.16% |         406      3.01%     63.17% |         386      2.86%     66.03% |         409      3.03%     69.06% |         404      2.99%     72.05% |         395      2.92%     74.97% |         427      3.16%     78.13% |         447      3.31%     81.44% |         437      3.24%     84.68% |         401      2.97%     87.64% |         416      3.08%     90.72% |         425      3.15%     93.87% |         426      3.15%     97.02% |         402      2.98%    100.00%
system.ruby.L2Cache_Controller.IS.Mem_Data::total        13508                      
system.ruby.L2Cache_Controller.IM.L1_GETX |           4    100.00%    100.00% |           0      0.00%    100.00% |           0      0.00%    100.00% |           0      0.00%    100.00% |           0      0.00%    100.00% |           0      0.00%    100.00% |           0      0.00%    100.00% |           0      0.00%    100.00% |           0      0.00%    100.00% |           0      0.00%    100.00% |           0      0.00%    100.00% |           0      0.00%    100.00% |           0      0.00%    100.00% |           0      0.00%    100.00% |           0      0.00%    100.00% |           0      0.00%    100.00% |           0      0.00%    100.00% |           0      0.00%    100.00% |           0      0.00%    100.00% |           0      0.00%    100.00% |           0      0.00%    100.00% |           0      0.00%    100.00% |           0      0.00%    100.00% |           0      0.00%    100.00% |           0      0.00%    100.00% |           0      0.00%    100.00% |           0      0.00%    100.00% |           0      0.00%    100.00% |           0      0.00%    100.00% |           0      0.00%    100.00% |           0      0.00%    100.00% |           0      0.00%    100.00%
system.ruby.L2Cache_Controller.IM.L1_GETX::total            4                      
system.ruby.L2Cache_Controller.IM.Mem_Data |       14980      3.14%      3.14% |       14885      3.12%      6.26% |       14890      3.12%      9.39% |       14891      3.12%     12.51% |       14883      3.12%     15.63% |       14891      3.12%     18.76% |       14894      3.12%     21.88% |       14887      3.12%     25.00% |       14895      3.12%     28.13% |       14899      3.13%     31.25% |       14880      3.12%     34.38% |       14902      3.13%     37.50% |       14892      3.12%     40.63% |       14893      3.12%     43.75% |       14888      3.12%     46.87% |       14883      3.12%     49.99% |       14922      3.13%     53.13% |       14897      3.12%     56.25% |       14897      3.12%     59.37% |       14901      3.13%     62.50% |       14912      3.13%     65.63% |       14920      3.13%     68.76% |       14886      3.12%     71.88% |       14898      3.13%     75.01% |       14908      3.13%     78.13% |       14899      3.13%     81.26% |       14902      3.13%     84.38% |       14893      3.12%     87.51% |       14887      3.12%     90.63% |       14883      3.12%     93.75% |       14895      3.12%     96.88% |       14882      3.12%    100.00%
system.ruby.L2Cache_Controller.IM.Mem_Data::total       476715                      
system.ruby.L2Cache_Controller.SS_MB.Exclusive_Unblock |           3      6.12%      6.12% |           6     12.24%     18.37% |           2      4.08%     22.45% |           3      6.12%     28.57% |           0      0.00%     28.57% |           0      0.00%     28.57% |           0      0.00%     28.57% |           0      0.00%     28.57% |           1      2.04%     30.61% |           0      0.00%     30.61% |           0      0.00%     30.61% |           1      2.04%     32.65% |           4      8.16%     40.82% |           0      0.00%     40.82% |           2      4.08%     44.90% |           0      0.00%     44.90% |           1      2.04%     46.94% |           2      4.08%     51.02% |          13     26.53%     77.55% |           3      6.12%     83.67% |           0      0.00%     83.67% |           0      0.00%     83.67% |           0      0.00%     83.67% |           0      0.00%     83.67% |           1      2.04%     85.71% |           0      0.00%     85.71% |           3      6.12%     91.84% |           4      8.16%    100.00% |           0      0.00%    100.00% |           0      0.00%    100.00% |           0      0.00%    100.00% |           0      0.00%    100.00%
system.ruby.L2Cache_Controller.SS_MB.Exclusive_Unblock::total           49                      
system.ruby.L2Cache_Controller.MT_MB.L1_GETS |           1    100.00%    100.00% |           0      0.00%    100.00% |           0      0.00%    100.00% |           0      0.00%    100.00% |           0      0.00%    100.00% |           0      0.00%    100.00% |           0      0.00%    100.00% |           0      0.00%    100.00% |           0      0.00%    100.00% |           0      0.00%    100.00% |           0      0.00%    100.00% |           0      0.00%    100.00% |           0      0.00%    100.00% |           0      0.00%    100.00% |           0      0.00%    100.00% |           0      0.00%    100.00% |           0      0.00%    100.00% |           0      0.00%    100.00% |           0      0.00%    100.00% |           0      0.00%    100.00% |           0      0.00%    100.00% |           0      0.00%    100.00% |           0      0.00%    100.00% |           0      0.00%    100.00% |           0      0.00%    100.00% |           0      0.00%    100.00% |           0      0.00%    100.00% |           0      0.00%    100.00% |           0      0.00%    100.00% |           0      0.00%    100.00% |           0      0.00%    100.00% |           0      0.00%    100.00%
system.ruby.L2Cache_Controller.MT_MB.L1_GETS::total            1                      
system.ruby.L2Cache_Controller.MT_MB.Exclusive_Unblock |       75911      7.22%      7.22% |       32862      3.13%     10.35% |       29486      2.81%     13.15% |       32396      3.08%     16.24% |       29782      2.83%     19.07% |       29679      2.82%     21.89% |       29092      2.77%     24.66% |       29700      2.83%     27.49% |       30397      2.89%     30.38% |       29990      2.85%     33.23% |       32550      3.10%     36.33% |       30866      2.94%     39.27% |       30521      2.90%     42.17% |       30304      2.88%     45.05% |       29599      2.82%     47.87% |       30196      2.87%     50.74% |       31503      3.00%     53.74% |       30314      2.88%     56.63% |       30935      2.94%     59.57% |       31633      3.01%     62.58% |       32121      3.06%     65.63% |       37030      3.52%     69.16% |       31254      2.97%     72.13% |       31249      2.97%     75.10% |       31259      2.97%     78.08% |       31241      2.97%     81.05% |       31164      2.97%     84.02% |       30877      2.94%     86.95% |       32690      3.11%     90.06% |       32157      3.06%     93.12% |       34146      3.25%     96.37% |       38125      3.63%    100.00%
system.ruby.L2Cache_Controller.MT_MB.Exclusive_Unblock::total      1051029                      
system.ruby.L2Cache_Controller.MT_IIB.WB_Data |           1      1.23%      1.23% |           2      2.47%      3.70% |           1      1.23%      4.94% |           3      3.70%      8.64% |           3      3.70%     12.35% |           3      3.70%     16.05% |           4      4.94%     20.99% |           3      3.70%     24.69% |           5      6.17%     30.86% |           3      3.70%     34.57% |           2      2.47%     37.04% |           2      2.47%     39.51% |           3      3.70%     43.21% |           3      3.70%     46.91% |           4      4.94%     51.85% |           3      3.70%     55.56% |           3      3.70%     59.26% |           1      1.23%     60.49% |           2      2.47%     62.96% |           0      0.00%     62.96% |           1      1.23%     64.20% |           0      0.00%     64.20% |           1      1.23%     65.43% |           2      2.47%     67.90% |           3      3.70%     71.60% |           5      6.17%     77.78% |           4      4.94%     82.72% |           5      6.17%     88.89% |           3      3.70%     92.59% |           2      2.47%     95.06% |           2      2.47%     97.53% |           2      2.47%    100.00%
system.ruby.L2Cache_Controller.MT_IIB.WB_Data::total           81                      
system.ruby.L2Cache_Controller.MT_IIB.WB_Data_clean |          31     40.26%     40.26% |           0      0.00%     40.26% |           0      0.00%     40.26% |          14     18.18%     58.44% |           0      0.00%     58.44% |           0      0.00%     58.44% |           0      0.00%     58.44% |           0      0.00%     58.44% |           0      0.00%     58.44% |           0      0.00%     58.44% |           0      0.00%     58.44% |           0      0.00%     58.44% |           0      0.00%     58.44% |           0      0.00%     58.44% |           0      0.00%     58.44% |           0      0.00%     58.44% |          13     16.88%     75.32% |           0      0.00%     75.32% |           0      0.00%     75.32% |          17     22.08%     97.40% |           0      0.00%     97.40% |           0      0.00%     97.40% |           0      0.00%     97.40% |           0      0.00%     97.40% |           0      0.00%     97.40% |           0      0.00%     97.40% |           0      0.00%     97.40% |           2      2.60%    100.00% |           0      0.00%    100.00% |           0      0.00%    100.00% |           0      0.00%    100.00% |           0      0.00%    100.00%
system.ruby.L2Cache_Controller.MT_IIB.WB_Data_clean::total           77                      
system.ruby.L2Cache_Controller.MT_IIB.Unblock |           1    100.00%    100.00% |           0      0.00%    100.00% |           0      0.00%    100.00% |           0      0.00%    100.00% |           0      0.00%    100.00% |           0      0.00%    100.00% |           0      0.00%    100.00% |           0      0.00%    100.00% |           0      0.00%    100.00% |           0      0.00%    100.00% |           0      0.00%    100.00% |           0      0.00%    100.00% |           0      0.00%    100.00% |           0      0.00%    100.00% |           0      0.00%    100.00% |           0      0.00%    100.00% |           0      0.00%    100.00% |           0      0.00%    100.00% |           0      0.00%    100.00% |           0      0.00%    100.00% |           0      0.00%    100.00% |           0      0.00%    100.00% |           0      0.00%    100.00% |           0      0.00%    100.00% |           0      0.00%    100.00% |           0      0.00%    100.00% |           0      0.00%    100.00% |           0      0.00%    100.00% |           0      0.00%    100.00% |           0      0.00%    100.00% |           0      0.00%    100.00% |           0      0.00%    100.00%
system.ruby.L2Cache_Controller.MT_IIB.Unblock::total            1                      
system.ruby.L2Cache_Controller.MT_IB.WB_Data_clean |           1    100.00%    100.00% |           0      0.00%    100.00% |           0      0.00%    100.00% |           0      0.00%    100.00% |           0      0.00%    100.00% |           0      0.00%    100.00% |           0      0.00%    100.00% |           0      0.00%    100.00% |           0      0.00%    100.00% |           0      0.00%    100.00% |           0      0.00%    100.00% |           0      0.00%    100.00% |           0      0.00%    100.00% |           0      0.00%    100.00% |           0      0.00%    100.00% |           0      0.00%    100.00% |           0      0.00%    100.00% |           0      0.00%    100.00% |           0      0.00%    100.00% |           0      0.00%    100.00% |           0      0.00%    100.00% |           0      0.00%    100.00% |           0      0.00%    100.00% |           0      0.00%    100.00% |           0      0.00%    100.00% |           0      0.00%    100.00% |           0      0.00%    100.00% |           0      0.00%    100.00% |           0      0.00%    100.00% |           0      0.00%    100.00% |           0      0.00%    100.00% |           0      0.00%    100.00%
system.ruby.L2Cache_Controller.MT_IB.WB_Data_clean::total            1                      
system.ruby.L2Cache_Controller.MT_SB.Unblock |          32     20.25%     20.25% |           2      1.27%     21.52% |           1      0.63%     22.15% |          17     10.76%     32.91% |           3      1.90%     34.81% |           3      1.90%     36.71% |           4      2.53%     39.24% |           3      1.90%     41.14% |           5      3.16%     44.30% |           3      1.90%     46.20% |           2      1.27%     47.47% |           2      1.27%     48.73% |           3      1.90%     50.63% |           3      1.90%     52.53% |           4      2.53%     55.06% |           3      1.90%     56.96% |          16     10.13%     67.09% |           1      0.63%     67.72% |           2      1.27%     68.99% |          17     10.76%     79.75% |           1      0.63%     80.38% |           0      0.00%     80.38% |           1      0.63%     81.01% |           2      1.27%     82.28% |           3      1.90%     84.18% |           5      3.16%     87.34% |           4      2.53%     89.87% |           7      4.43%     94.30% |           3      1.90%     96.20% |           2      1.27%     97.47% |           2      1.27%     98.73% |           2      1.27%    100.00%
system.ruby.L2Cache_Controller.MT_SB.Unblock::total          158                      
system.ruby.SimicsNetworkPortInterface_Controller.MessageSend |      206611     22.82%     22.82% |      452796     50.00%     72.82% |       30292      3.34%     76.16% |       31039      3.43%     79.59% |       31132      3.44%     83.03% |       31488      3.48%     86.50% |       30591      3.38%     89.88% |       30919      3.41%     93.29% |       29767      3.29%     96.58% |       30957      3.42%    100.00% |           0      0.00%    100.00% |           0      0.00%    100.00% |           0      0.00%    100.00% |           0      0.00%    100.00% |           0      0.00%    100.00% |           0      0.00%    100.00% |           0      0.00%    100.00% |           0      0.00%    100.00% |           0      0.00%    100.00% |           0      0.00%    100.00% |           0      0.00%    100.00% |           0      0.00%    100.00% |           0      0.00%    100.00% |           0      0.00%    100.00% |           0      0.00%    100.00% |           0      0.00%    100.00% |           0      0.00%    100.00% |           0      0.00%    100.00% |           0      0.00%    100.00% |           0      0.00%    100.00% |           0      0.00%    100.00% |           0      0.00%    100.00%
system.ruby.SimicsNetworkPortInterface_Controller.MessageSend::total       905592                      
system.ruby.SimicsNetworkPortInterface_Controller.MessageRecv |      206611     22.82%     22.82% |      452796     50.00%     72.82% |       30292      3.34%     76.16% |       31039      3.43%     79.59% |       31132      3.44%     83.03% |       31488      3.48%     86.50% |       30591      3.38%     89.88% |       30919      3.41%     93.29% |       29767      3.29%     96.58% |       30957      3.42%    100.00% |           0      0.00%    100.00% |           0      0.00%    100.00% |           0      0.00%    100.00% |           0      0.00%    100.00% |           0      0.00%    100.00% |           0      0.00%    100.00% |           0      0.00%    100.00% |           0      0.00%    100.00% |           0      0.00%    100.00% |           0      0.00%    100.00% |           0      0.00%    100.00% |           0      0.00%    100.00% |           0      0.00%    100.00% |           0      0.00%    100.00% |           0      0.00%    100.00% |           0      0.00%    100.00% |           0      0.00%    100.00% |           0      0.00%    100.00% |           0      0.00%    100.00% |           0      0.00%    100.00% |           0      0.00%    100.00% |           0      0.00%    100.00%
system.ruby.SimicsNetworkPortInterface_Controller.MessageRecv::total       905592                      
system.ruby.SimicsNetworkPortInterface_Controller.A.MessageSend |      206611     22.82%     22.82% |      452796     50.00%     72.82% |       30292      3.34%     76.16% |       31039      3.43%     79.59% |       31132      3.44%     83.03% |       31488      3.48%     86.50% |       30591      3.38%     89.88% |       30919      3.41%     93.29% |       29767      3.29%     96.58% |       30957      3.42%    100.00% |           0      0.00%    100.00% |           0      0.00%    100.00% |           0      0.00%    100.00% |           0      0.00%    100.00% |           0      0.00%    100.00% |           0      0.00%    100.00% |           0      0.00%    100.00% |           0      0.00%    100.00% |           0      0.00%    100.00% |           0      0.00%    100.00% |           0      0.00%    100.00% |           0      0.00%    100.00% |           0      0.00%    100.00% |           0      0.00%    100.00% |           0      0.00%    100.00% |           0      0.00%    100.00% |           0      0.00%    100.00% |           0      0.00%    100.00% |           0      0.00%    100.00% |           0      0.00%    100.00% |           0      0.00%    100.00% |           0      0.00%    100.00%
system.ruby.SimicsNetworkPortInterface_Controller.A.MessageSend::total       905592                      
system.ruby.SimicsNetworkPortInterface_Controller.A.MessageRecv |      206611     22.82%     22.82% |      452796     50.00%     72.82% |       30292      3.34%     76.16% |       31039      3.43%     79.59% |       31132      3.44%     83.03% |       31488      3.48%     86.50% |       30591      3.38%     89.88% |       30919      3.41%     93.29% |       29767      3.29%     96.58% |       30957      3.42%    100.00% |           0      0.00%    100.00% |           0      0.00%    100.00% |           0      0.00%    100.00% |           0      0.00%    100.00% |           0      0.00%    100.00% |           0      0.00%    100.00% |           0      0.00%    100.00% |           0      0.00%    100.00% |           0      0.00%    100.00% |           0      0.00%    100.00% |           0      0.00%    100.00% |           0      0.00%    100.00% |           0      0.00%    100.00% |           0      0.00%    100.00% |           0      0.00%    100.00% |           0      0.00%    100.00% |           0      0.00%    100.00% |           0      0.00%    100.00% |           0      0.00%    100.00% |           0      0.00%    100.00% |           0      0.00%    100.00% |           0      0.00%    100.00%
system.ruby.SimicsNetworkPortInterface_Controller.A.MessageRecv::total       905592                      
system.switch_cpus.kern.inst.arm                    0                       # number of arm instructions executed
system.switch_cpus.kern.inst.quiesce                0                       # number of quiesce instructions executed

---------- End Simulation Statistics   ----------
