
---------- Begin Simulation Statistics ----------
sim_seconds                                  0.038060                       # Number of seconds simulated
sim_ticks                                 38059820000                       # Number of ticks simulated
final_tick                               5214227898500                       # Number of ticks from beginning of simulation (restored from checkpoints and never reset)
sim_freq                                 1000000000000                       # Frequency of simulated ticks
host_inst_rate                                  33314                       # Simulator instruction rate (inst/s)
host_op_rate                                    59905                       # Simulator op (including micro ops) rate (op/s)
host_tick_rate                               52120785                       # Simulator tick rate (ticks/s)
host_mem_usage                                4782560                       # Number of bytes of host memory used
host_seconds                                   730.22                       # Real time elapsed on the host
sim_insts                                    24326554                       # Number of instructions simulated
sim_ops                                      43744182                       # Number of ops (including micro ops) simulated
system.voltage_domain.voltage                       1                       # Voltage in Volts
system.clk_domain.clock                           500                       # Clock period in ticks
system.mem_ctrls0.bytes_read::ruby.dir_cntrl0      4968768                       # Number of bytes read from this memory
system.mem_ctrls0.bytes_read::total           4968768                       # Number of bytes read from this memory
system.mem_ctrls0.bytes_written::ruby.dir_cntrl0      3964736                       # Number of bytes written to this memory
system.mem_ctrls0.bytes_written::total        3964736                       # Number of bytes written to this memory
system.mem_ctrls0.num_reads::ruby.dir_cntrl0        77637                       # Number of read requests responded to by this memory
system.mem_ctrls0.num_reads::total              77637                       # Number of read requests responded to by this memory
system.mem_ctrls0.num_writes::ruby.dir_cntrl0        61949                       # Number of write requests responded to by this memory
system.mem_ctrls0.num_writes::total             61949                       # Number of write requests responded to by this memory
system.mem_ctrls0.bw_read::ruby.dir_cntrl0    130551537                       # Total read bandwidth from this memory (bytes/s)
system.mem_ctrls0.bw_read::total            130551537                       # Total read bandwidth from this memory (bytes/s)
system.mem_ctrls0.bw_write::ruby.dir_cntrl0    104171171                       # Write bandwidth from this memory (bytes/s)
system.mem_ctrls0.bw_write::total           104171171                       # Write bandwidth from this memory (bytes/s)
system.mem_ctrls0.bw_total::ruby.dir_cntrl0    234722708                       # Total bandwidth to/from this memory (bytes/s)
system.mem_ctrls0.bw_total::total           234722708                       # Total bandwidth to/from this memory (bytes/s)
system.mem_ctrls0.readReqs                      77637                       # Number of read requests accepted
system.mem_ctrls0.writeReqs                     61949                       # Number of write requests accepted
system.mem_ctrls0.readBursts                    77637                       # Number of DRAM read bursts, including those serviced by the write queue
system.mem_ctrls0.writeBursts                   61949                       # Number of DRAM write bursts, including those merged in the write queue
system.mem_ctrls0.bytesReadDRAM               4967296                       # Total number of bytes read from DRAM
system.mem_ctrls0.bytesReadWrQ                   1472                       # Total number of bytes read from write queue
system.mem_ctrls0.bytesWritten                3964608                       # Total number of bytes written to DRAM
system.mem_ctrls0.bytesReadSys                4968768                       # Total read bytes from the system interface side
system.mem_ctrls0.bytesWrittenSys             3964736                       # Total written bytes from the system interface side
system.mem_ctrls0.servicedByWrQ                    23                       # Number of DRAM read bursts serviced by the write queue
system.mem_ctrls0.mergedWrBursts                    0                       # Number of DRAM write bursts merged with an existing one
system.mem_ctrls0.neitherReadNorWriteReqs            0                       # Number of requests that are neither read nor write
system.mem_ctrls0.perBankRdBursts::0             4397                       # Per bank write bursts
system.mem_ctrls0.perBankRdBursts::1             4841                       # Per bank write bursts
system.mem_ctrls0.perBankRdBursts::2             4545                       # Per bank write bursts
system.mem_ctrls0.perBankRdBursts::3             4966                       # Per bank write bursts
system.mem_ctrls0.perBankRdBursts::4             4854                       # Per bank write bursts
system.mem_ctrls0.perBankRdBursts::5             5351                       # Per bank write bursts
system.mem_ctrls0.perBankRdBursts::6             4948                       # Per bank write bursts
system.mem_ctrls0.perBankRdBursts::7             5222                       # Per bank write bursts
system.mem_ctrls0.perBankRdBursts::8             5045                       # Per bank write bursts
system.mem_ctrls0.perBankRdBursts::9             5202                       # Per bank write bursts
system.mem_ctrls0.perBankRdBursts::10            4616                       # Per bank write bursts
system.mem_ctrls0.perBankRdBursts::11            4794                       # Per bank write bursts
system.mem_ctrls0.perBankRdBursts::12            4591                       # Per bank write bursts
system.mem_ctrls0.perBankRdBursts::13            4630                       # Per bank write bursts
system.mem_ctrls0.perBankRdBursts::14            4797                       # Per bank write bursts
system.mem_ctrls0.perBankRdBursts::15            4815                       # Per bank write bursts
system.mem_ctrls0.perBankWrBursts::0             3625                       # Per bank write bursts
system.mem_ctrls0.perBankWrBursts::1             3567                       # Per bank write bursts
system.mem_ctrls0.perBankWrBursts::2             3643                       # Per bank write bursts
system.mem_ctrls0.perBankWrBursts::3             3794                       # Per bank write bursts
system.mem_ctrls0.perBankWrBursts::4             3861                       # Per bank write bursts
system.mem_ctrls0.perBankWrBursts::5             4191                       # Per bank write bursts
system.mem_ctrls0.perBankWrBursts::6             3918                       # Per bank write bursts
system.mem_ctrls0.perBankWrBursts::7             4192                       # Per bank write bursts
system.mem_ctrls0.perBankWrBursts::8             4056                       # Per bank write bursts
system.mem_ctrls0.perBankWrBursts::9             4133                       # Per bank write bursts
system.mem_ctrls0.perBankWrBursts::10            3697                       # Per bank write bursts
system.mem_ctrls0.perBankWrBursts::11            3637                       # Per bank write bursts
system.mem_ctrls0.perBankWrBursts::12            3797                       # Per bank write bursts
system.mem_ctrls0.perBankWrBursts::13            3901                       # Per bank write bursts
system.mem_ctrls0.perBankWrBursts::14            4028                       # Per bank write bursts
system.mem_ctrls0.perBankWrBursts::15            3907                       # Per bank write bursts
system.mem_ctrls0.numRdRetry                        1                       # Number of times read queue was full causing retry
system.mem_ctrls0.numWrRetry                      151                       # Number of times write queue was full causing retry
system.mem_ctrls0.totGap                  38059327000                       # Total gap between requests
system.mem_ctrls0.readPktSize::0                    0                       # Read request sizes (log2)
system.mem_ctrls0.readPktSize::1                    0                       # Read request sizes (log2)
system.mem_ctrls0.readPktSize::2                    0                       # Read request sizes (log2)
system.mem_ctrls0.readPktSize::3                    0                       # Read request sizes (log2)
system.mem_ctrls0.readPktSize::4                    0                       # Read request sizes (log2)
system.mem_ctrls0.readPktSize::5                    0                       # Read request sizes (log2)
system.mem_ctrls0.readPktSize::6                77637                       # Read request sizes (log2)
system.mem_ctrls0.writePktSize::0                   0                       # Write request sizes (log2)
system.mem_ctrls0.writePktSize::1                   0                       # Write request sizes (log2)
system.mem_ctrls0.writePktSize::2                   0                       # Write request sizes (log2)
system.mem_ctrls0.writePktSize::3                   0                       # Write request sizes (log2)
system.mem_ctrls0.writePktSize::4                   0                       # Write request sizes (log2)
system.mem_ctrls0.writePktSize::5                   0                       # Write request sizes (log2)
system.mem_ctrls0.writePktSize::6               61949                       # Write request sizes (log2)
system.mem_ctrls0.rdQLenPdf::0                  59891                       # What read queue length does an incoming req see
system.mem_ctrls0.rdQLenPdf::1                  10551                       # What read queue length does an incoming req see
system.mem_ctrls0.rdQLenPdf::2                   3439                       # What read queue length does an incoming req see
system.mem_ctrls0.rdQLenPdf::3                   1446                       # What read queue length does an incoming req see
system.mem_ctrls0.rdQLenPdf::4                    807                       # What read queue length does an incoming req see
system.mem_ctrls0.rdQLenPdf::5                    447                       # What read queue length does an incoming req see
system.mem_ctrls0.rdQLenPdf::6                    299                       # What read queue length does an incoming req see
system.mem_ctrls0.rdQLenPdf::7                    198                       # What read queue length does an incoming req see
system.mem_ctrls0.rdQLenPdf::8                    114                       # What read queue length does an incoming req see
system.mem_ctrls0.rdQLenPdf::9                     85                       # What read queue length does an incoming req see
system.mem_ctrls0.rdQLenPdf::10                    49                       # What read queue length does an incoming req see
system.mem_ctrls0.rdQLenPdf::11                    39                       # What read queue length does an incoming req see
system.mem_ctrls0.rdQLenPdf::12                    31                       # What read queue length does an incoming req see
system.mem_ctrls0.rdQLenPdf::13                    28                       # What read queue length does an incoming req see
system.mem_ctrls0.rdQLenPdf::14                    25                       # What read queue length does an incoming req see
system.mem_ctrls0.rdQLenPdf::15                    26                       # What read queue length does an incoming req see
system.mem_ctrls0.rdQLenPdf::16                    26                       # What read queue length does an incoming req see
system.mem_ctrls0.rdQLenPdf::17                    19                       # What read queue length does an incoming req see
system.mem_ctrls0.rdQLenPdf::18                    18                       # What read queue length does an incoming req see
system.mem_ctrls0.rdQLenPdf::19                    11                       # What read queue length does an incoming req see
system.mem_ctrls0.rdQLenPdf::20                    12                       # What read queue length does an incoming req see
system.mem_ctrls0.rdQLenPdf::21                    10                       # What read queue length does an incoming req see
system.mem_ctrls0.rdQLenPdf::22                    12                       # What read queue length does an incoming req see
system.mem_ctrls0.rdQLenPdf::23                    11                       # What read queue length does an incoming req see
system.mem_ctrls0.rdQLenPdf::24                     7                       # What read queue length does an incoming req see
system.mem_ctrls0.rdQLenPdf::25                     5                       # What read queue length does an incoming req see
system.mem_ctrls0.rdQLenPdf::26                     2                       # What read queue length does an incoming req see
system.mem_ctrls0.rdQLenPdf::27                     1                       # What read queue length does an incoming req see
system.mem_ctrls0.rdQLenPdf::28                     1                       # What read queue length does an incoming req see
system.mem_ctrls0.rdQLenPdf::29                     1                       # What read queue length does an incoming req see
system.mem_ctrls0.rdQLenPdf::30                     1                       # What read queue length does an incoming req see
system.mem_ctrls0.rdQLenPdf::31                     2                       # What read queue length does an incoming req see
system.mem_ctrls0.wrQLenPdf::0                  11505                       # What write queue length does an incoming req see
system.mem_ctrls0.wrQLenPdf::1                  12669                       # What write queue length does an incoming req see
system.mem_ctrls0.wrQLenPdf::2                  12648                       # What write queue length does an incoming req see
system.mem_ctrls0.wrQLenPdf::3                  12338                       # What write queue length does an incoming req see
system.mem_ctrls0.wrQLenPdf::4                  11935                       # What write queue length does an incoming req see
system.mem_ctrls0.wrQLenPdf::5                    420                       # What write queue length does an incoming req see
system.mem_ctrls0.wrQLenPdf::6                    176                       # What write queue length does an incoming req see
system.mem_ctrls0.wrQLenPdf::7                    258                       # What write queue length does an incoming req see
system.mem_ctrls0.bytesPerActivate::samples        52889                       # Bytes accessed per row activation
system.mem_ctrls0.bytesPerActivate::mean   168.877763                       # Bytes accessed per row activation
system.mem_ctrls0.bytesPerActivate::gmean   119.878290                       # Bytes accessed per row activation
system.mem_ctrls0.bytesPerActivate::stdev   175.552146                       # Bytes accessed per row activation
system.mem_ctrls0.bytesPerActivate::0-127        27219     51.46%     51.46% # Bytes accessed per row activation
system.mem_ctrls0.bytesPerActivate::128-255        13129     24.82%     76.29% # Bytes accessed per row activation
system.mem_ctrls0.bytesPerActivate::256-383         7562     14.30%     90.59% # Bytes accessed per row activation
system.mem_ctrls0.bytesPerActivate::384-511         1906      3.60%     94.19% # Bytes accessed per row activation
system.mem_ctrls0.bytesPerActivate::512-639         1123      2.12%     96.31% # Bytes accessed per row activation
system.mem_ctrls0.bytesPerActivate::640-767          624      1.18%     97.49% # Bytes accessed per row activation
system.mem_ctrls0.bytesPerActivate::768-895          430      0.81%     98.31% # Bytes accessed per row activation
system.mem_ctrls0.bytesPerActivate::896-1023          346      0.65%     98.96% # Bytes accessed per row activation
system.mem_ctrls0.bytesPerActivate::1024-1151          550      1.04%    100.00% # Bytes accessed per row activation
system.mem_ctrls0.bytesPerActivate::total        52889                       # Bytes accessed per row activation
system.mem_ctrls0.rdPerTurnAround::samples        11526                       # Reads before turning the bus around for writes
system.mem_ctrls0.rdPerTurnAround::mean      6.733212                       # Reads before turning the bus around for writes
system.mem_ctrls0.rdPerTurnAround::stdev    37.599959                       # Reads before turning the bus around for writes
system.mem_ctrls0.rdPerTurnAround::0-127        11520     99.95%     99.95% # Reads before turning the bus around for writes
system.mem_ctrls0.rdPerTurnAround::128-255            5      0.04%     99.99% # Reads before turning the bus around for writes
system.mem_ctrls0.rdPerTurnAround::3968-4095            1      0.01%    100.00% # Reads before turning the bus around for writes
system.mem_ctrls0.rdPerTurnAround::total        11526                       # Reads before turning the bus around for writes
system.mem_ctrls0.wrPerTurnAround::samples        11526                       # Writes before turning the bus around for reads
system.mem_ctrls0.wrPerTurnAround::mean      5.374545                       # Writes before turning the bus around for reads
system.mem_ctrls0.wrPerTurnAround::gmean     5.294774                       # Writes before turning the bus around for reads
system.mem_ctrls0.wrPerTurnAround::stdev     1.159777                       # Writes before turning the bus around for reads
system.mem_ctrls0.wrPerTurnAround::4-7          11015     95.57%     95.57% # Writes before turning the bus around for reads
system.mem_ctrls0.wrPerTurnAround::8-11           405      3.51%     99.08% # Writes before turning the bus around for reads
system.mem_ctrls0.wrPerTurnAround::12-15           82      0.71%     99.79% # Writes before turning the bus around for reads
system.mem_ctrls0.wrPerTurnAround::16-19           24      0.21%    100.00% # Writes before turning the bus around for reads
system.mem_ctrls0.wrPerTurnAround::total        11526                       # Writes before turning the bus around for reads
system.mem_ctrls0.totQLat                  1895573613                       # Total ticks spent queuing
system.mem_ctrls0.totMemAccLat             3350836113                       # Total ticks spent from burst creation until serviced by the DRAM
system.mem_ctrls0.totBusLat                 388070000                       # Total ticks spent in databus transfers
system.mem_ctrls0.avgQLat                    24423.09                       # Average queueing delay per DRAM burst
system.mem_ctrls0.avgBusLat                   5000.00                       # Average bus latency per DRAM burst
system.mem_ctrls0.avgMemAccLat               43173.09                       # Average memory access latency per DRAM burst
system.mem_ctrls0.avgRdBW                      130.51                       # Average DRAM read bandwidth in MiByte/s
system.mem_ctrls0.avgWrBW                      104.17                       # Average achieved write bandwidth in MiByte/s
system.mem_ctrls0.avgRdBWSys                   130.55                       # Average system read bandwidth in MiByte/s
system.mem_ctrls0.avgWrBWSys                   104.17                       # Average system write bandwidth in MiByte/s
system.mem_ctrls0.peakBW                     12800.00                       # Theoretical peak bandwidth in MiByte/s
system.mem_ctrls0.busUtil                        1.83                       # Data bus utilization in percentage
system.mem_ctrls0.busUtilRead                    1.02                       # Data bus utilization in percentage for reads
system.mem_ctrls0.busUtilWrite                   0.81                       # Data bus utilization in percentage for writes
system.mem_ctrls0.avgRdQLen                      1.10                       # Average read queue length when enqueuing
system.mem_ctrls0.avgWrQLen                      2.85                       # Average write queue length when enqueuing
system.mem_ctrls0.readRowHits                   53416                       # Number of row buffer hits during reads
system.mem_ctrls0.writeRowHits                  33254                       # Number of row buffer hits during writes
system.mem_ctrls0.readRowHitRate                68.82                       # Row buffer hit rate for reads
system.mem_ctrls0.writeRowHitRate               53.68                       # Row buffer hit rate for writes
system.mem_ctrls0.avgGap                    272658.63                       # Average gap between requests
system.mem_ctrls0.pageHitRate                   62.10                       # Row buffer hit rate, read and write combined
system.mem_ctrls0.memoryStateTime::IDLE    8554921500                       # Time in different power states
system.mem_ctrls0.memoryStateTime::REF     1270880000                       # Time in different power states
system.mem_ctrls0.memoryStateTime::PRE_PDN            0                       # Time in different power states
system.mem_ctrls0.memoryStateTime::ACT    28233662250                       # Time in different power states
system.mem_ctrls0.memoryStateTime::ACT_PDN            0                       # Time in different power states
system.mem_ctrls0.actEnergy::0              199674720                       # Energy for activate commands per rank (pJ)
system.mem_ctrls0.actEnergy::1              200166120                       # Energy for activate commands per rank (pJ)
system.mem_ctrls0.preEnergy::0              108949500                       # Energy for precharge commands per rank (pJ)
system.mem_ctrls0.preEnergy::1              109217625                       # Energy for precharge commands per rank (pJ)
system.mem_ctrls0.readEnergy::0             305167200                       # Energy for read commands per rank (pJ)
system.mem_ctrls0.readEnergy::1             300206400                       # Energy for read commands per rank (pJ)
system.mem_ctrls0.writeEnergy::0            199525680                       # Energy for write commands per rank (pJ)
system.mem_ctrls0.writeEnergy::1            201890880                       # Energy for write commands per rank (pJ)
system.mem_ctrls0.refreshEnergy::0         2485841280                       # Energy for refresh commands per rank (pJ)
system.mem_ctrls0.refreshEnergy::1         2485841280                       # Energy for refresh commands per rank (pJ)
system.mem_ctrls0.actBackEnergy::0        15303329505                       # Energy for active background per rank (pJ)
system.mem_ctrls0.actBackEnergy::1        14860852470                       # Energy for active background per rank (pJ)
system.mem_ctrls0.preBackEnergy::0         9411696750                       # Energy for precharge background per rank (pJ)
system.mem_ctrls0.preBackEnergy::1         9799834500                       # Energy for precharge background per rank (pJ)
system.mem_ctrls0.totalEnergy::0          28014184635                       # Total energy per rank (pJ)
system.mem_ctrls0.totalEnergy::1          27958009275                       # Total energy per rank (pJ)
system.mem_ctrls0.averagePower::0          736.063833                       # Core power per rank (mW)
system.mem_ctrls0.averagePower::1          734.587843                       # Core power per rank (mW)
system.mem_ctrls1.bytes_read::ruby.dir_cntrl1      4882880                       # Number of bytes read from this memory
system.mem_ctrls1.bytes_read::total           4882880                       # Number of bytes read from this memory
system.mem_ctrls1.bytes_written::ruby.dir_cntrl1      3886592                       # Number of bytes written to this memory
system.mem_ctrls1.bytes_written::total        3886592                       # Number of bytes written to this memory
system.mem_ctrls1.num_reads::ruby.dir_cntrl1        76295                       # Number of read requests responded to by this memory
system.mem_ctrls1.num_reads::total              76295                       # Number of read requests responded to by this memory
system.mem_ctrls1.num_writes::ruby.dir_cntrl1        60728                       # Number of write requests responded to by this memory
system.mem_ctrls1.num_writes::total             60728                       # Number of write requests responded to by this memory
system.mem_ctrls1.bw_read::ruby.dir_cntrl1    128294879                       # Total read bandwidth from this memory (bytes/s)
system.mem_ctrls1.bw_read::total            128294879                       # Total read bandwidth from this memory (bytes/s)
system.mem_ctrls1.bw_write::ruby.dir_cntrl1    102117982                       # Write bandwidth from this memory (bytes/s)
system.mem_ctrls1.bw_write::total           102117982                       # Write bandwidth from this memory (bytes/s)
system.mem_ctrls1.bw_total::ruby.dir_cntrl1    230412861                       # Total bandwidth to/from this memory (bytes/s)
system.mem_ctrls1.bw_total::total           230412861                       # Total bandwidth to/from this memory (bytes/s)
system.mem_ctrls1.readReqs                      76295                       # Number of read requests accepted
system.mem_ctrls1.writeReqs                     60728                       # Number of write requests accepted
system.mem_ctrls1.readBursts                    76295                       # Number of DRAM read bursts, including those serviced by the write queue
system.mem_ctrls1.writeBursts                   60728                       # Number of DRAM write bursts, including those merged in the write queue
system.mem_ctrls1.bytesReadDRAM               4882112                       # Total number of bytes read from DRAM
system.mem_ctrls1.bytesReadWrQ                    768                       # Total number of bytes read from write queue
system.mem_ctrls1.bytesWritten                3886592                       # Total number of bytes written to DRAM
system.mem_ctrls1.bytesReadSys                4882880                       # Total read bytes from the system interface side
system.mem_ctrls1.bytesWrittenSys             3886592                       # Total written bytes from the system interface side
system.mem_ctrls1.servicedByWrQ                    12                       # Number of DRAM read bursts serviced by the write queue
system.mem_ctrls1.mergedWrBursts                    0                       # Number of DRAM write bursts merged with an existing one
system.mem_ctrls1.neitherReadNorWriteReqs            0                       # Number of requests that are neither read nor write
system.mem_ctrls1.perBankRdBursts::0             4327                       # Per bank write bursts
system.mem_ctrls1.perBankRdBursts::1             4748                       # Per bank write bursts
system.mem_ctrls1.perBankRdBursts::2             4465                       # Per bank write bursts
system.mem_ctrls1.perBankRdBursts::3             4894                       # Per bank write bursts
system.mem_ctrls1.perBankRdBursts::4             4783                       # Per bank write bursts
system.mem_ctrls1.perBankRdBursts::5             5298                       # Per bank write bursts
system.mem_ctrls1.perBankRdBursts::6             4887                       # Per bank write bursts
system.mem_ctrls1.perBankRdBursts::7             5163                       # Per bank write bursts
system.mem_ctrls1.perBankRdBursts::8             4940                       # Per bank write bursts
system.mem_ctrls1.perBankRdBursts::9             5091                       # Per bank write bursts
system.mem_ctrls1.perBankRdBursts::10            4517                       # Per bank write bursts
system.mem_ctrls1.perBankRdBursts::11            4727                       # Per bank write bursts
system.mem_ctrls1.perBankRdBursts::12            4493                       # Per bank write bursts
system.mem_ctrls1.perBankRdBursts::13            4574                       # Per bank write bursts
system.mem_ctrls1.perBankRdBursts::14            4636                       # Per bank write bursts
system.mem_ctrls1.perBankRdBursts::15            4740                       # Per bank write bursts
system.mem_ctrls1.perBankWrBursts::0             3559                       # Per bank write bursts
system.mem_ctrls1.perBankWrBursts::1             3507                       # Per bank write bursts
system.mem_ctrls1.perBankWrBursts::2             3578                       # Per bank write bursts
system.mem_ctrls1.perBankWrBursts::3             3743                       # Per bank write bursts
system.mem_ctrls1.perBankWrBursts::4             3792                       # Per bank write bursts
system.mem_ctrls1.perBankWrBursts::5             4122                       # Per bank write bursts
system.mem_ctrls1.perBankWrBursts::6             3839                       # Per bank write bursts
system.mem_ctrls1.perBankWrBursts::7             4108                       # Per bank write bursts
system.mem_ctrls1.perBankWrBursts::8             3972                       # Per bank write bursts
system.mem_ctrls1.perBankWrBursts::9             4036                       # Per bank write bursts
system.mem_ctrls1.perBankWrBursts::10            3617                       # Per bank write bursts
system.mem_ctrls1.perBankWrBursts::11            3570                       # Per bank write bursts
system.mem_ctrls1.perBankWrBursts::12            3719                       # Per bank write bursts
system.mem_ctrls1.perBankWrBursts::13            3830                       # Per bank write bursts
system.mem_ctrls1.perBankWrBursts::14            3899                       # Per bank write bursts
system.mem_ctrls1.perBankWrBursts::15            3837                       # Per bank write bursts
system.mem_ctrls1.numRdRetry                        3                       # Number of times read queue was full causing retry
system.mem_ctrls1.numWrRetry                      165                       # Number of times write queue was full causing retry
system.mem_ctrls1.totGap                  38059079000                       # Total gap between requests
system.mem_ctrls1.readPktSize::0                    0                       # Read request sizes (log2)
system.mem_ctrls1.readPktSize::1                    0                       # Read request sizes (log2)
system.mem_ctrls1.readPktSize::2                    0                       # Read request sizes (log2)
system.mem_ctrls1.readPktSize::3                    0                       # Read request sizes (log2)
system.mem_ctrls1.readPktSize::4                    0                       # Read request sizes (log2)
system.mem_ctrls1.readPktSize::5                    0                       # Read request sizes (log2)
system.mem_ctrls1.readPktSize::6                76295                       # Read request sizes (log2)
system.mem_ctrls1.writePktSize::0                   0                       # Write request sizes (log2)
system.mem_ctrls1.writePktSize::1                   0                       # Write request sizes (log2)
system.mem_ctrls1.writePktSize::2                   0                       # Write request sizes (log2)
system.mem_ctrls1.writePktSize::3                   0                       # Write request sizes (log2)
system.mem_ctrls1.writePktSize::4                   0                       # Write request sizes (log2)
system.mem_ctrls1.writePktSize::5                   0                       # Write request sizes (log2)
system.mem_ctrls1.writePktSize::6               60728                       # Write request sizes (log2)
system.mem_ctrls1.rdQLenPdf::0                  59361                       # What read queue length does an incoming req see
system.mem_ctrls1.rdQLenPdf::1                  10066                       # What read queue length does an incoming req see
system.mem_ctrls1.rdQLenPdf::2                   3251                       # What read queue length does an incoming req see
system.mem_ctrls1.rdQLenPdf::3                   1395                       # What read queue length does an incoming req see
system.mem_ctrls1.rdQLenPdf::4                    768                       # What read queue length does an incoming req see
system.mem_ctrls1.rdQLenPdf::5                    471                       # What read queue length does an incoming req see
system.mem_ctrls1.rdQLenPdf::6                    310                       # What read queue length does an incoming req see
system.mem_ctrls1.rdQLenPdf::7                    187                       # What read queue length does an incoming req see
system.mem_ctrls1.rdQLenPdf::8                    106                       # What read queue length does an incoming req see
system.mem_ctrls1.rdQLenPdf::9                     73                       # What read queue length does an incoming req see
system.mem_ctrls1.rdQLenPdf::10                    47                       # What read queue length does an incoming req see
system.mem_ctrls1.rdQLenPdf::11                    39                       # What read queue length does an incoming req see
system.mem_ctrls1.rdQLenPdf::12                    36                       # What read queue length does an incoming req see
system.mem_ctrls1.rdQLenPdf::13                    29                       # What read queue length does an incoming req see
system.mem_ctrls1.rdQLenPdf::14                    20                       # What read queue length does an incoming req see
system.mem_ctrls1.rdQLenPdf::15                    21                       # What read queue length does an incoming req see
system.mem_ctrls1.rdQLenPdf::16                    12                       # What read queue length does an incoming req see
system.mem_ctrls1.rdQLenPdf::17                    10                       # What read queue length does an incoming req see
system.mem_ctrls1.rdQLenPdf::18                     8                       # What read queue length does an incoming req see
system.mem_ctrls1.rdQLenPdf::19                     9                       # What read queue length does an incoming req see
system.mem_ctrls1.rdQLenPdf::20                    11                       # What read queue length does an incoming req see
system.mem_ctrls1.rdQLenPdf::21                     9                       # What read queue length does an incoming req see
system.mem_ctrls1.rdQLenPdf::22                    10                       # What read queue length does an incoming req see
system.mem_ctrls1.rdQLenPdf::23                     9                       # What read queue length does an incoming req see
system.mem_ctrls1.rdQLenPdf::24                     6                       # What read queue length does an incoming req see
system.mem_ctrls1.rdQLenPdf::25                     7                       # What read queue length does an incoming req see
system.mem_ctrls1.rdQLenPdf::26                     4                       # What read queue length does an incoming req see
system.mem_ctrls1.rdQLenPdf::27                     1                       # What read queue length does an incoming req see
system.mem_ctrls1.rdQLenPdf::28                     1                       # What read queue length does an incoming req see
system.mem_ctrls1.rdQLenPdf::29                     1                       # What read queue length does an incoming req see
system.mem_ctrls1.rdQLenPdf::30                     1                       # What read queue length does an incoming req see
system.mem_ctrls1.rdQLenPdf::31                     4                       # What read queue length does an incoming req see
system.mem_ctrls1.wrQLenPdf::0                  11305                       # What write queue length does an incoming req see
system.mem_ctrls1.wrQLenPdf::1                  12327                       # What write queue length does an incoming req see
system.mem_ctrls1.wrQLenPdf::2                  12379                       # What write queue length does an incoming req see
system.mem_ctrls1.wrQLenPdf::3                  12087                       # What write queue length does an incoming req see
system.mem_ctrls1.wrQLenPdf::4                  11755                       # What write queue length does an incoming req see
system.mem_ctrls1.wrQLenPdf::5                    422                       # What write queue length does an incoming req see
system.mem_ctrls1.wrQLenPdf::6                    193                       # What write queue length does an incoming req see
system.mem_ctrls1.wrQLenPdf::7                    260                       # What write queue length does an incoming req see
system.mem_ctrls1.bytesPerActivate::samples        50843                       # Bytes accessed per row activation
system.mem_ctrls1.bytesPerActivate::mean   172.460004                       # Bytes accessed per row activation
system.mem_ctrls1.bytesPerActivate::gmean   121.792986                       # Bytes accessed per row activation
system.mem_ctrls1.bytesPerActivate::stdev   179.170855                       # Bytes accessed per row activation
system.mem_ctrls1.bytesPerActivate::0-127        25753     50.65%     50.65% # Bytes accessed per row activation
system.mem_ctrls1.bytesPerActivate::128-255        12598     24.78%     75.43% # Bytes accessed per row activation
system.mem_ctrls1.bytesPerActivate::256-383         7471     14.69%     90.12% # Bytes accessed per row activation
system.mem_ctrls1.bytesPerActivate::384-511         1902      3.74%     93.87% # Bytes accessed per row activation
system.mem_ctrls1.bytesPerActivate::512-639         1133      2.23%     96.09% # Bytes accessed per row activation
system.mem_ctrls1.bytesPerActivate::640-767          641      1.26%     97.35% # Bytes accessed per row activation
system.mem_ctrls1.bytesPerActivate::768-895          455      0.89%     98.25% # Bytes accessed per row activation
system.mem_ctrls1.bytesPerActivate::896-1023          304      0.60%     98.85% # Bytes accessed per row activation
system.mem_ctrls1.bytesPerActivate::1024-1151          586      1.15%    100.00% # Bytes accessed per row activation
system.mem_ctrls1.bytesPerActivate::total        50843                       # Bytes accessed per row activation
system.mem_ctrls1.rdPerTurnAround::samples        11326                       # Reads before turning the bus around for writes
system.mem_ctrls1.rdPerTurnAround::mean      6.735211                       # Reads before turning the bus around for writes
system.mem_ctrls1.rdPerTurnAround::stdev    29.895413                       # Reads before turning the bus around for writes
system.mem_ctrls1.rdPerTurnAround::0-127        11321     99.96%     99.96% # Reads before turning the bus around for writes
system.mem_ctrls1.rdPerTurnAround::128-255            3      0.03%     99.98% # Reads before turning the bus around for writes
system.mem_ctrls1.rdPerTurnAround::1152-1279            1      0.01%     99.99% # Reads before turning the bus around for writes
system.mem_ctrls1.rdPerTurnAround::2816-2943            1      0.01%    100.00% # Reads before turning the bus around for writes
system.mem_ctrls1.rdPerTurnAround::total        11326                       # Reads before turning the bus around for writes
system.mem_ctrls1.wrPerTurnAround::samples        11326                       # Writes before turning the bus around for reads
system.mem_ctrls1.wrPerTurnAround::mean      5.361822                       # Writes before turning the bus around for reads
system.mem_ctrls1.wrPerTurnAround::gmean     5.282984                       # Writes before turning the bus around for reads
system.mem_ctrls1.wrPerTurnAround::stdev     1.157345                       # Writes before turning the bus around for reads
system.mem_ctrls1.wrPerTurnAround::4-7          10852     95.81%     95.81% # Writes before turning the bus around for reads
system.mem_ctrls1.wrPerTurnAround::8-11           372      3.28%     99.10% # Writes before turning the bus around for reads
system.mem_ctrls1.wrPerTurnAround::12-15           76      0.67%     99.77% # Writes before turning the bus around for reads
system.mem_ctrls1.wrPerTurnAround::16-19           26      0.23%    100.00% # Writes before turning the bus around for reads
system.mem_ctrls1.wrPerTurnAround::total        11326                       # Writes before turning the bus around for reads
system.mem_ctrls1.totQLat                  1811782062                       # Total ticks spent queuing
system.mem_ctrls1.totMemAccLat             3242088312                       # Total ticks spent from burst creation until serviced by the DRAM
system.mem_ctrls1.totBusLat                 381415000                       # Total ticks spent in databus transfers
system.mem_ctrls1.avgQLat                    23750.80                       # Average queueing delay per DRAM burst
system.mem_ctrls1.avgBusLat                   5000.00                       # Average bus latency per DRAM burst
system.mem_ctrls1.avgMemAccLat               42500.80                       # Average memory access latency per DRAM burst
system.mem_ctrls1.avgRdBW                      128.27                       # Average DRAM read bandwidth in MiByte/s
system.mem_ctrls1.avgWrBW                      102.12                       # Average achieved write bandwidth in MiByte/s
system.mem_ctrls1.avgRdBWSys                   128.29                       # Average system read bandwidth in MiByte/s
system.mem_ctrls1.avgWrBWSys                   102.12                       # Average system write bandwidth in MiByte/s
system.mem_ctrls1.peakBW                     12800.00                       # Theoretical peak bandwidth in MiByte/s
system.mem_ctrls1.busUtil                        1.80                       # Data bus utilization in percentage
system.mem_ctrls1.busUtilRead                    1.00                       # Data bus utilization in percentage for reads
system.mem_ctrls1.busUtilWrite                   0.80                       # Data bus utilization in percentage for writes
system.mem_ctrls1.avgRdQLen                      1.07                       # Average read queue length when enqueuing
system.mem_ctrls1.avgWrQLen                      2.91                       # Average write queue length when enqueuing
system.mem_ctrls1.readRowHits                   52714                       # Number of row buffer hits during reads
system.mem_ctrls1.writeRowHits                  33449                       # Number of row buffer hits during writes
system.mem_ctrls1.readRowHitRate                69.10                       # Row buffer hit rate for reads
system.mem_ctrls1.writeRowHitRate               55.08                       # Row buffer hit rate for writes
system.mem_ctrls1.avgGap                    277756.87                       # Average gap between requests
system.mem_ctrls1.pageHitRate                   62.89                       # Row buffer hit rate, read and write combined
system.mem_ctrls1.memoryStateTime::IDLE    8910951000                       # Time in different power states
system.mem_ctrls1.memoryStateTime::REF     1270880000                       # Time in different power states
system.mem_ctrls1.memoryStateTime::PRE_PDN            0                       # Time in different power states
system.mem_ctrls1.memoryStateTime::ACT    27877632750                       # Time in different power states
system.mem_ctrls1.memoryStateTime::ACT_PDN            0                       # Time in different power states
system.mem_ctrls1.actEnergy::0              193067280                       # Energy for activate commands per rank (pJ)
system.mem_ctrls1.actEnergy::1              191290680                       # Energy for activate commands per rank (pJ)
system.mem_ctrls1.preEnergy::0              105344250                       # Energy for precharge commands per rank (pJ)
system.mem_ctrls1.preEnergy::1              104374875                       # Energy for precharge commands per rank (pJ)
system.mem_ctrls1.readEnergy::0             300807000                       # Energy for read commands per rank (pJ)
system.mem_ctrls1.readEnergy::1             294177000                       # Energy for read commands per rank (pJ)
system.mem_ctrls1.writeEnergy::0            196000560                       # Energy for write commands per rank (pJ)
system.mem_ctrls1.writeEnergy::1            197484480                       # Energy for write commands per rank (pJ)
system.mem_ctrls1.refreshEnergy::0         2485841280                       # Energy for refresh commands per rank (pJ)
system.mem_ctrls1.refreshEnergy::1         2485841280                       # Energy for refresh commands per rank (pJ)
system.mem_ctrls1.actBackEnergy::0        15182497485                       # Energy for active background per rank (pJ)
system.mem_ctrls1.actBackEnergy::1        14445135225                       # Energy for active background per rank (pJ)
system.mem_ctrls1.preBackEnergy::0         9517689750                       # Energy for precharge background per rank (pJ)
system.mem_ctrls1.preBackEnergy::1        10164498750                       # Energy for precharge background per rank (pJ)
system.mem_ctrls1.totalEnergy::0          27981247605                       # Total energy per rank (pJ)
system.mem_ctrls1.totalEnergy::1          27882802290                       # Total energy per rank (pJ)
system.mem_ctrls1.averagePower::0          735.198423                       # Core power per rank (mW)
system.mem_ctrls1.averagePower::1          732.611803                       # Core power per rank (mW)
system.mem_ctrls2.bytes_read::ruby.dir_cntrl2      4881344                       # Number of bytes read from this memory
system.mem_ctrls2.bytes_read::total           4881344                       # Number of bytes read from this memory
system.mem_ctrls2.bytes_written::ruby.dir_cntrl2      3885824                       # Number of bytes written to this memory
system.mem_ctrls2.bytes_written::total        3885824                       # Number of bytes written to this memory
system.mem_ctrls2.num_reads::ruby.dir_cntrl2        76271                       # Number of read requests responded to by this memory
system.mem_ctrls2.num_reads::total              76271                       # Number of read requests responded to by this memory
system.mem_ctrls2.num_writes::ruby.dir_cntrl2        60716                       # Number of write requests responded to by this memory
system.mem_ctrls2.num_writes::total             60716                       # Number of write requests responded to by this memory
system.mem_ctrls2.bw_read::ruby.dir_cntrl2    128254521                       # Total read bandwidth from this memory (bytes/s)
system.mem_ctrls2.bw_read::total            128254521                       # Total read bandwidth from this memory (bytes/s)
system.mem_ctrls2.bw_write::ruby.dir_cntrl2    102097803                       # Write bandwidth from this memory (bytes/s)
system.mem_ctrls2.bw_write::total           102097803                       # Write bandwidth from this memory (bytes/s)
system.mem_ctrls2.bw_total::ruby.dir_cntrl2    230352324                       # Total bandwidth to/from this memory (bytes/s)
system.mem_ctrls2.bw_total::total           230352324                       # Total bandwidth to/from this memory (bytes/s)
system.mem_ctrls2.readReqs                      76271                       # Number of read requests accepted
system.mem_ctrls2.writeReqs                     60716                       # Number of write requests accepted
system.mem_ctrls2.readBursts                    76271                       # Number of DRAM read bursts, including those serviced by the write queue
system.mem_ctrls2.writeBursts                   60716                       # Number of DRAM write bursts, including those merged in the write queue
system.mem_ctrls2.bytesReadDRAM               4880384                       # Total number of bytes read from DRAM
system.mem_ctrls2.bytesReadWrQ                    960                       # Total number of bytes read from write queue
system.mem_ctrls2.bytesWritten                3885824                       # Total number of bytes written to DRAM
system.mem_ctrls2.bytesReadSys                4881344                       # Total read bytes from the system interface side
system.mem_ctrls2.bytesWrittenSys             3885824                       # Total written bytes from the system interface side
system.mem_ctrls2.servicedByWrQ                    15                       # Number of DRAM read bursts serviced by the write queue
system.mem_ctrls2.mergedWrBursts                    0                       # Number of DRAM write bursts merged with an existing one
system.mem_ctrls2.neitherReadNorWriteReqs            0                       # Number of requests that are neither read nor write
system.mem_ctrls2.perBankRdBursts::0             4319                       # Per bank write bursts
system.mem_ctrls2.perBankRdBursts::1             4753                       # Per bank write bursts
system.mem_ctrls2.perBankRdBursts::2             4470                       # Per bank write bursts
system.mem_ctrls2.perBankRdBursts::3             4903                       # Per bank write bursts
system.mem_ctrls2.perBankRdBursts::4             4777                       # Per bank write bursts
system.mem_ctrls2.perBankRdBursts::5             5293                       # Per bank write bursts
system.mem_ctrls2.perBankRdBursts::6             4862                       # Per bank write bursts
system.mem_ctrls2.perBankRdBursts::7             5162                       # Per bank write bursts
system.mem_ctrls2.perBankRdBursts::8             4918                       # Per bank write bursts
system.mem_ctrls2.perBankRdBursts::9             5101                       # Per bank write bursts
system.mem_ctrls2.perBankRdBursts::10            4520                       # Per bank write bursts
system.mem_ctrls2.perBankRdBursts::11            4768                       # Per bank write bursts
system.mem_ctrls2.perBankRdBursts::12            4492                       # Per bank write bursts
system.mem_ctrls2.perBankRdBursts::13            4542                       # Per bank write bursts
system.mem_ctrls2.perBankRdBursts::14            4623                       # Per bank write bursts
system.mem_ctrls2.perBankRdBursts::15            4753                       # Per bank write bursts
system.mem_ctrls2.perBankWrBursts::0             3555                       # Per bank write bursts
system.mem_ctrls2.perBankWrBursts::1             3509                       # Per bank write bursts
system.mem_ctrls2.perBankWrBursts::2             3572                       # Per bank write bursts
system.mem_ctrls2.perBankWrBursts::3             3732                       # Per bank write bursts
system.mem_ctrls2.perBankWrBursts::4             3787                       # Per bank write bursts
system.mem_ctrls2.perBankWrBursts::5             4117                       # Per bank write bursts
system.mem_ctrls2.perBankWrBursts::6             3842                       # Per bank write bursts
system.mem_ctrls2.perBankWrBursts::7             4122                       # Per bank write bursts
system.mem_ctrls2.perBankWrBursts::8             3968                       # Per bank write bursts
system.mem_ctrls2.perBankWrBursts::9             4046                       # Per bank write bursts
system.mem_ctrls2.perBankWrBursts::10            3616                       # Per bank write bursts
system.mem_ctrls2.perBankWrBursts::11            3577                       # Per bank write bursts
system.mem_ctrls2.perBankWrBursts::12            3720                       # Per bank write bursts
system.mem_ctrls2.perBankWrBursts::13            3822                       # Per bank write bursts
system.mem_ctrls2.perBankWrBursts::14            3894                       # Per bank write bursts
system.mem_ctrls2.perBankWrBursts::15            3837                       # Per bank write bursts
system.mem_ctrls2.numRdRetry                        0                       # Number of times read queue was full causing retry
system.mem_ctrls2.numWrRetry                      138                       # Number of times write queue was full causing retry
system.mem_ctrls2.totGap                  38059553000                       # Total gap between requests
system.mem_ctrls2.readPktSize::0                    0                       # Read request sizes (log2)
system.mem_ctrls2.readPktSize::1                    0                       # Read request sizes (log2)
system.mem_ctrls2.readPktSize::2                    0                       # Read request sizes (log2)
system.mem_ctrls2.readPktSize::3                    0                       # Read request sizes (log2)
system.mem_ctrls2.readPktSize::4                    0                       # Read request sizes (log2)
system.mem_ctrls2.readPktSize::5                    0                       # Read request sizes (log2)
system.mem_ctrls2.readPktSize::6                76271                       # Read request sizes (log2)
system.mem_ctrls2.writePktSize::0                   0                       # Write request sizes (log2)
system.mem_ctrls2.writePktSize::1                   0                       # Write request sizes (log2)
system.mem_ctrls2.writePktSize::2                   0                       # Write request sizes (log2)
system.mem_ctrls2.writePktSize::3                   0                       # Write request sizes (log2)
system.mem_ctrls2.writePktSize::4                   0                       # Write request sizes (log2)
system.mem_ctrls2.writePktSize::5                   0                       # Write request sizes (log2)
system.mem_ctrls2.writePktSize::6               60716                       # Write request sizes (log2)
system.mem_ctrls2.rdQLenPdf::0                  59458                       # What read queue length does an incoming req see
system.mem_ctrls2.rdQLenPdf::1                  10040                       # What read queue length does an incoming req see
system.mem_ctrls2.rdQLenPdf::2                   3282                       # What read queue length does an incoming req see
system.mem_ctrls2.rdQLenPdf::3                   1439                       # What read queue length does an incoming req see
system.mem_ctrls2.rdQLenPdf::4                    742                       # What read queue length does an incoming req see
system.mem_ctrls2.rdQLenPdf::5                    422                       # What read queue length does an incoming req see
system.mem_ctrls2.rdQLenPdf::6                    263                       # What read queue length does an incoming req see
system.mem_ctrls2.rdQLenPdf::7                    162                       # What read queue length does an incoming req see
system.mem_ctrls2.rdQLenPdf::8                     94                       # What read queue length does an incoming req see
system.mem_ctrls2.rdQLenPdf::9                     66                       # What read queue length does an incoming req see
system.mem_ctrls2.rdQLenPdf::10                    57                       # What read queue length does an incoming req see
system.mem_ctrls2.rdQLenPdf::11                    47                       # What read queue length does an incoming req see
system.mem_ctrls2.rdQLenPdf::12                    41                       # What read queue length does an incoming req see
system.mem_ctrls2.rdQLenPdf::13                    34                       # What read queue length does an incoming req see
system.mem_ctrls2.rdQLenPdf::14                    30                       # What read queue length does an incoming req see
system.mem_ctrls2.rdQLenPdf::15                    26                       # What read queue length does an incoming req see
system.mem_ctrls2.rdQLenPdf::16                    15                       # What read queue length does an incoming req see
system.mem_ctrls2.rdQLenPdf::17                     8                       # What read queue length does an incoming req see
system.mem_ctrls2.rdQLenPdf::18                     7                       # What read queue length does an incoming req see
system.mem_ctrls2.rdQLenPdf::19                     5                       # What read queue length does an incoming req see
system.mem_ctrls2.rdQLenPdf::20                     4                       # What read queue length does an incoming req see
system.mem_ctrls2.rdQLenPdf::21                     5                       # What read queue length does an incoming req see
system.mem_ctrls2.rdQLenPdf::22                     5                       # What read queue length does an incoming req see
system.mem_ctrls2.rdQLenPdf::23                     2                       # What read queue length does an incoming req see
system.mem_ctrls2.rdQLenPdf::24                     2                       # What read queue length does an incoming req see
system.mem_ctrls2.rdQLenPdf::25                     0                       # What read queue length does an incoming req see
system.mem_ctrls2.rdQLenPdf::26                     0                       # What read queue length does an incoming req see
system.mem_ctrls2.rdQLenPdf::27                     0                       # What read queue length does an incoming req see
system.mem_ctrls2.rdQLenPdf::28                     0                       # What read queue length does an incoming req see
system.mem_ctrls2.rdQLenPdf::29                     0                       # What read queue length does an incoming req see
system.mem_ctrls2.rdQLenPdf::30                     0                       # What read queue length does an incoming req see
system.mem_ctrls2.rdQLenPdf::31                     0                       # What read queue length does an incoming req see
system.mem_ctrls2.wrQLenPdf::0                  11343                       # What write queue length does an incoming req see
system.mem_ctrls2.wrQLenPdf::1                  12353                       # What write queue length does an incoming req see
system.mem_ctrls2.wrQLenPdf::2                  12346                       # What write queue length does an incoming req see
system.mem_ctrls2.wrQLenPdf::3                  12097                       # What write queue length does an incoming req see
system.mem_ctrls2.wrQLenPdf::4                  11749                       # What write queue length does an incoming req see
system.mem_ctrls2.wrQLenPdf::5                    406                       # What write queue length does an incoming req see
system.mem_ctrls2.wrQLenPdf::6                    188                       # What write queue length does an incoming req see
system.mem_ctrls2.wrQLenPdf::7                    234                       # What write queue length does an incoming req see
system.mem_ctrls2.bytesPerActivate::samples        50851                       # Bytes accessed per row activation
system.mem_ctrls2.bytesPerActivate::mean   172.388822                       # Bytes accessed per row activation
system.mem_ctrls2.bytesPerActivate::gmean   121.909622                       # Bytes accessed per row activation
system.mem_ctrls2.bytesPerActivate::stdev   178.500399                       # Bytes accessed per row activation
system.mem_ctrls2.bytesPerActivate::0-127        25696     50.53%     50.53% # Bytes accessed per row activation
system.mem_ctrls2.bytesPerActivate::128-255        12640     24.86%     75.39% # Bytes accessed per row activation
system.mem_ctrls2.bytesPerActivate::256-383         7502     14.75%     90.14% # Bytes accessed per row activation
system.mem_ctrls2.bytesPerActivate::384-511         1945      3.82%     93.97% # Bytes accessed per row activation
system.mem_ctrls2.bytesPerActivate::512-639         1122      2.21%     96.17% # Bytes accessed per row activation
system.mem_ctrls2.bytesPerActivate::640-767          606      1.19%     97.36% # Bytes accessed per row activation
system.mem_ctrls2.bytesPerActivate::768-895          447      0.88%     98.24% # Bytes accessed per row activation
system.mem_ctrls2.bytesPerActivate::896-1023          319      0.63%     98.87% # Bytes accessed per row activation
system.mem_ctrls2.bytesPerActivate::1024-1151          574      1.13%    100.00% # Bytes accessed per row activation
system.mem_ctrls2.bytesPerActivate::total        50851                       # Bytes accessed per row activation
system.mem_ctrls2.rdPerTurnAround::samples        11356                       # Reads before turning the bus around for writes
system.mem_ctrls2.rdPerTurnAround::mean      6.714952                       # Reads before turning the bus around for writes
system.mem_ctrls2.rdPerTurnAround::stdev    29.923431                       # Reads before turning the bus around for writes
system.mem_ctrls2.rdPerTurnAround::0-127        11351     99.96%     99.96% # Reads before turning the bus around for writes
system.mem_ctrls2.rdPerTurnAround::128-255            3      0.03%     99.98% # Reads before turning the bus around for writes
system.mem_ctrls2.rdPerTurnAround::1152-1279            1      0.01%     99.99% # Reads before turning the bus around for writes
system.mem_ctrls2.rdPerTurnAround::2816-2943            1      0.01%    100.00% # Reads before turning the bus around for writes
system.mem_ctrls2.rdPerTurnAround::total        11356                       # Reads before turning the bus around for writes
system.mem_ctrls2.wrPerTurnAround::samples        11356                       # Writes before turning the bus around for reads
system.mem_ctrls2.wrPerTurnAround::mean      5.346601                       # Writes before turning the bus around for reads
system.mem_ctrls2.wrPerTurnAround::gmean     5.274383                       # Writes before turning the bus around for reads
system.mem_ctrls2.wrPerTurnAround::stdev     1.093344                       # Writes before turning the bus around for reads
system.mem_ctrls2.wrPerTurnAround::4-7          10907     96.05%     96.05% # Writes before turning the bus around for reads
system.mem_ctrls2.wrPerTurnAround::8-11           361      3.18%     99.23% # Writes before turning the bus around for reads
system.mem_ctrls2.wrPerTurnAround::12-15           72      0.63%     99.86% # Writes before turning the bus around for reads
system.mem_ctrls2.wrPerTurnAround::16-19           16      0.14%    100.00% # Writes before turning the bus around for reads
system.mem_ctrls2.wrPerTurnAround::total        11356                       # Writes before turning the bus around for reads
system.mem_ctrls2.totQLat                  1787632633                       # Total ticks spent queuing
system.mem_ctrls2.totMemAccLat             3217432633                       # Total ticks spent from burst creation until serviced by the DRAM
system.mem_ctrls2.totBusLat                 381280000                       # Total ticks spent in databus transfers
system.mem_ctrls2.avgQLat                    23442.52                       # Average queueing delay per DRAM burst
system.mem_ctrls2.avgBusLat                   5000.00                       # Average bus latency per DRAM burst
system.mem_ctrls2.avgMemAccLat               42192.52                       # Average memory access latency per DRAM burst
system.mem_ctrls2.avgRdBW                      128.23                       # Average DRAM read bandwidth in MiByte/s
system.mem_ctrls2.avgWrBW                      102.10                       # Average achieved write bandwidth in MiByte/s
system.mem_ctrls2.avgRdBWSys                   128.25                       # Average system read bandwidth in MiByte/s
system.mem_ctrls2.avgWrBWSys                   102.10                       # Average system write bandwidth in MiByte/s
system.mem_ctrls2.peakBW                     12800.00                       # Theoretical peak bandwidth in MiByte/s
system.mem_ctrls2.busUtil                        1.80                       # Data bus utilization in percentage
system.mem_ctrls2.busUtilRead                    1.00                       # Data bus utilization in percentage for reads
system.mem_ctrls2.busUtilWrite                   0.80                       # Data bus utilization in percentage for writes
system.mem_ctrls2.avgRdQLen                      1.07                       # Average read queue length when enqueuing
system.mem_ctrls2.avgWrQLen                      2.93                       # Average write queue length when enqueuing
system.mem_ctrls2.readRowHits                   52661                       # Number of row buffer hits during reads
system.mem_ctrls2.writeRowHits                  33459                       # Number of row buffer hits during writes
system.mem_ctrls2.readRowHitRate                69.06                       # Row buffer hit rate for reads
system.mem_ctrls2.writeRowHitRate               55.11                       # Row buffer hit rate for writes
system.mem_ctrls2.avgGap                    277833.32                       # Average gap between requests
system.mem_ctrls2.pageHitRate                   62.87                       # Row buffer hit rate, read and write combined
system.mem_ctrls2.memoryStateTime::IDLE    8901743500                       # Time in different power states
system.mem_ctrls2.memoryStateTime::REF     1270880000                       # Time in different power states
system.mem_ctrls2.memoryStateTime::PRE_PDN            0                       # Time in different power states
system.mem_ctrls2.memoryStateTime::ACT    27886955500                       # Time in different power states
system.mem_ctrls2.memoryStateTime::ACT_PDN            0                       # Time in different power states
system.mem_ctrls2.actEnergy::0              193037040                       # Energy for activate commands per rank (pJ)
system.mem_ctrls2.actEnergy::1              191396520                       # Energy for activate commands per rank (pJ)
system.mem_ctrls2.preEnergy::0              105327750                       # Energy for precharge commands per rank (pJ)
system.mem_ctrls2.preEnergy::1              104432625                       # Energy for precharge commands per rank (pJ)
system.mem_ctrls2.readEnergy::0             300596400                       # Energy for read commands per rank (pJ)
system.mem_ctrls2.readEnergy::1             294192600                       # Energy for read commands per rank (pJ)
system.mem_ctrls2.writeEnergy::0            195929280                       # Energy for write commands per rank (pJ)
system.mem_ctrls2.writeEnergy::1            197510400                       # Energy for write commands per rank (pJ)
system.mem_ctrls2.refreshEnergy::0         2485841280                       # Energy for refresh commands per rank (pJ)
system.mem_ctrls2.refreshEnergy::1         2485841280                       # Energy for refresh commands per rank (pJ)
system.mem_ctrls2.actBackEnergy::0        15063725160                       # Energy for active background per rank (pJ)
system.mem_ctrls2.actBackEnergy::1        14584077000                       # Energy for active background per rank (pJ)
system.mem_ctrls2.preBackEnergy::0         9621876000                       # Energy for precharge background per rank (pJ)
system.mem_ctrls2.preBackEnergy::1        10042620000                       # Energy for precharge background per rank (pJ)
system.mem_ctrls2.totalEnergy::0          27966332910                       # Total energy per rank (pJ)
system.mem_ctrls2.totalEnergy::1          27900070425                       # Total energy per rank (pJ)
system.mem_ctrls2.averagePower::0          734.806544                       # Core power per rank (mW)
system.mem_ctrls2.averagePower::1          733.065518                       # Core power per rank (mW)
system.mem_ctrls3.bytes_read::ruby.dir_cntrl3      4858688                       # Number of bytes read from this memory
system.mem_ctrls3.bytes_read::total           4858688                       # Number of bytes read from this memory
system.mem_ctrls3.bytes_written::ruby.dir_cntrl3      3879616                       # Number of bytes written to this memory
system.mem_ctrls3.bytes_written::total        3879616                       # Number of bytes written to this memory
system.mem_ctrls3.num_reads::ruby.dir_cntrl3        75917                       # Number of read requests responded to by this memory
system.mem_ctrls3.num_reads::total              75917                       # Number of read requests responded to by this memory
system.mem_ctrls3.num_writes::ruby.dir_cntrl3        60619                       # Number of write requests responded to by this memory
system.mem_ctrls3.num_writes::total             60619                       # Number of write requests responded to by this memory
system.mem_ctrls3.bw_read::ruby.dir_cntrl3    127659248                       # Total read bandwidth from this memory (bytes/s)
system.mem_ctrls3.bw_read::total            127659248                       # Total read bandwidth from this memory (bytes/s)
system.mem_ctrls3.bw_write::ruby.dir_cntrl3    101934691                       # Write bandwidth from this memory (bytes/s)
system.mem_ctrls3.bw_write::total           101934691                       # Write bandwidth from this memory (bytes/s)
system.mem_ctrls3.bw_total::ruby.dir_cntrl3    229593939                       # Total bandwidth to/from this memory (bytes/s)
system.mem_ctrls3.bw_total::total           229593939                       # Total bandwidth to/from this memory (bytes/s)
system.mem_ctrls3.readReqs                      75918                       # Number of read requests accepted
system.mem_ctrls3.writeReqs                     60619                       # Number of write requests accepted
system.mem_ctrls3.readBursts                    75918                       # Number of DRAM read bursts, including those serviced by the write queue
system.mem_ctrls3.writeBursts                   60619                       # Number of DRAM write bursts, including those merged in the write queue
system.mem_ctrls3.bytesReadDRAM               4858176                       # Total number of bytes read from DRAM
system.mem_ctrls3.bytesReadWrQ                    576                       # Total number of bytes read from write queue
system.mem_ctrls3.bytesWritten                3879424                       # Total number of bytes written to DRAM
system.mem_ctrls3.bytesReadSys                4858752                       # Total read bytes from the system interface side
system.mem_ctrls3.bytesWrittenSys             3879616                       # Total written bytes from the system interface side
system.mem_ctrls3.servicedByWrQ                     9                       # Number of DRAM read bursts serviced by the write queue
system.mem_ctrls3.mergedWrBursts                    0                       # Number of DRAM write bursts merged with an existing one
system.mem_ctrls3.neitherReadNorWriteReqs            0                       # Number of requests that are neither read nor write
system.mem_ctrls3.perBankRdBursts::0             4299                       # Per bank write bursts
system.mem_ctrls3.perBankRdBursts::1             4718                       # Per bank write bursts
system.mem_ctrls3.perBankRdBursts::2             4419                       # Per bank write bursts
system.mem_ctrls3.perBankRdBursts::3             4860                       # Per bank write bursts
system.mem_ctrls3.perBankRdBursts::4             4737                       # Per bank write bursts
system.mem_ctrls3.perBankRdBursts::5             5240                       # Per bank write bursts
system.mem_ctrls3.perBankRdBursts::6             4866                       # Per bank write bursts
system.mem_ctrls3.perBankRdBursts::7             5147                       # Per bank write bursts
system.mem_ctrls3.perBankRdBursts::8             4922                       # Per bank write bursts
system.mem_ctrls3.perBankRdBursts::9             5080                       # Per bank write bursts
system.mem_ctrls3.perBankRdBursts::10            4520                       # Per bank write bursts
system.mem_ctrls3.perBankRdBursts::11            4731                       # Per bank write bursts
system.mem_ctrls3.perBankRdBursts::12            4482                       # Per bank write bursts
system.mem_ctrls3.perBankRdBursts::13            4517                       # Per bank write bursts
system.mem_ctrls3.perBankRdBursts::14            4643                       # Per bank write bursts
system.mem_ctrls3.perBankRdBursts::15            4728                       # Per bank write bursts
system.mem_ctrls3.perBankWrBursts::0             3555                       # Per bank write bursts
system.mem_ctrls3.perBankWrBursts::1             3505                       # Per bank write bursts
system.mem_ctrls3.perBankWrBursts::2             3566                       # Per bank write bursts
system.mem_ctrls3.perBankWrBursts::3             3718                       # Per bank write bursts
system.mem_ctrls3.perBankWrBursts::4             3786                       # Per bank write bursts
system.mem_ctrls3.perBankWrBursts::5             4100                       # Per bank write bursts
system.mem_ctrls3.perBankWrBursts::6             3831                       # Per bank write bursts
system.mem_ctrls3.perBankWrBursts::7             4105                       # Per bank write bursts
system.mem_ctrls3.perBankWrBursts::8             3971                       # Per bank write bursts
system.mem_ctrls3.perBankWrBursts::9             4039                       # Per bank write bursts
system.mem_ctrls3.perBankWrBursts::10            3605                       # Per bank write bursts
system.mem_ctrls3.perBankWrBursts::11            3581                       # Per bank write bursts
system.mem_ctrls3.perBankWrBursts::12            3716                       # Per bank write bursts
system.mem_ctrls3.perBankWrBursts::13            3823                       # Per bank write bursts
system.mem_ctrls3.perBankWrBursts::14            3892                       # Per bank write bursts
system.mem_ctrls3.perBankWrBursts::15            3823                       # Per bank write bursts
system.mem_ctrls3.numRdRetry                        6                       # Number of times read queue was full causing retry
system.mem_ctrls3.numWrRetry                      149                       # Number of times write queue was full causing retry
system.mem_ctrls3.totGap                  38059078000                       # Total gap between requests
system.mem_ctrls3.readPktSize::0                    0                       # Read request sizes (log2)
system.mem_ctrls3.readPktSize::1                    0                       # Read request sizes (log2)
system.mem_ctrls3.readPktSize::2                    0                       # Read request sizes (log2)
system.mem_ctrls3.readPktSize::3                    0                       # Read request sizes (log2)
system.mem_ctrls3.readPktSize::4                    0                       # Read request sizes (log2)
system.mem_ctrls3.readPktSize::5                    0                       # Read request sizes (log2)
system.mem_ctrls3.readPktSize::6                75918                       # Read request sizes (log2)
system.mem_ctrls3.writePktSize::0                   0                       # Write request sizes (log2)
system.mem_ctrls3.writePktSize::1                   0                       # Write request sizes (log2)
system.mem_ctrls3.writePktSize::2                   0                       # Write request sizes (log2)
system.mem_ctrls3.writePktSize::3                   0                       # Write request sizes (log2)
system.mem_ctrls3.writePktSize::4                   0                       # Write request sizes (log2)
system.mem_ctrls3.writePktSize::5                   0                       # Write request sizes (log2)
system.mem_ctrls3.writePktSize::6               60619                       # Write request sizes (log2)
system.mem_ctrls3.rdQLenPdf::0                  59001                       # What read queue length does an incoming req see
system.mem_ctrls3.rdQLenPdf::1                  10164                       # What read queue length does an incoming req see
system.mem_ctrls3.rdQLenPdf::2                   3260                       # What read queue length does an incoming req see
system.mem_ctrls3.rdQLenPdf::3                   1388                       # What read queue length does an incoming req see
system.mem_ctrls3.rdQLenPdf::4                    720                       # What read queue length does an incoming req see
system.mem_ctrls3.rdQLenPdf::5                    428                       # What read queue length does an incoming req see
system.mem_ctrls3.rdQLenPdf::6                    264                       # What read queue length does an incoming req see
system.mem_ctrls3.rdQLenPdf::7                    154                       # What read queue length does an incoming req see
system.mem_ctrls3.rdQLenPdf::8                    100                       # What read queue length does an incoming req see
system.mem_ctrls3.rdQLenPdf::9                     73                       # What read queue length does an incoming req see
system.mem_ctrls3.rdQLenPdf::10                    49                       # What read queue length does an incoming req see
system.mem_ctrls3.rdQLenPdf::11                    44                       # What read queue length does an incoming req see
system.mem_ctrls3.rdQLenPdf::12                    39                       # What read queue length does an incoming req see
system.mem_ctrls3.rdQLenPdf::13                    26                       # What read queue length does an incoming req see
system.mem_ctrls3.rdQLenPdf::14                    24                       # What read queue length does an incoming req see
system.mem_ctrls3.rdQLenPdf::15                    28                       # What read queue length does an incoming req see
system.mem_ctrls3.rdQLenPdf::16                    20                       # What read queue length does an incoming req see
system.mem_ctrls3.rdQLenPdf::17                    17                       # What read queue length does an incoming req see
system.mem_ctrls3.rdQLenPdf::18                    13                       # What read queue length does an incoming req see
system.mem_ctrls3.rdQLenPdf::19                    14                       # What read queue length does an incoming req see
system.mem_ctrls3.rdQLenPdf::20                    17                       # What read queue length does an incoming req see
system.mem_ctrls3.rdQLenPdf::21                    11                       # What read queue length does an incoming req see
system.mem_ctrls3.rdQLenPdf::22                    11                       # What read queue length does an incoming req see
system.mem_ctrls3.rdQLenPdf::23                    11                       # What read queue length does an incoming req see
system.mem_ctrls3.rdQLenPdf::24                    11                       # What read queue length does an incoming req see
[...]
system.ruby.L2Cache_Controller.MT_IIB.WB_Data_clean::total        19692                      
system.ruby.L2Cache_Controller.MT_IIB.Unblock |          37      0.64%      0.64% |          65      1.13%      1.77% |         183      3.18%      4.95% |         193      3.36%      8.31% |         101      1.76%     10.07% |         189      3.29%     13.35% |         230      4.00%     17.35% |         243      4.22%     21.58% |         231      4.02%     25.59% |         195      3.39%     28.98% |         170      2.96%     31.94% |         216      3.76%     35.69% |         157      2.73%     38.42% |         212      3.69%     42.11% |         145      2.52%     44.63% |         103      1.79%     46.42% |         193      3.36%     49.77% |         231      4.02%     53.79% |         199      3.46%     57.25% |         199      3.46%     60.71% |         192      3.34%     64.05% |         181      3.15%     67.19% |         148      2.57%     69.77% |         160      2.78%     72.55% |         277      4.82%     77.36% |         135      2.35%     79.71% |         195      3.39%     83.10% |         200      3.48%     86.58% |         135      2.35%     88.93% |         237      4.12%     93.05% |         137      2.38%     95.43% |         263      4.57%    100.00%
system.ruby.L2Cache_Controller.MT_IIB.Unblock::total         5752                      
system.ruby.L2Cache_Controller.MT_IB.L1_GETS |           0      0.00%      0.00% |           0      0.00%      0.00% |           0      0.00%      0.00% |           0      0.00%      0.00% |           0      0.00%      0.00% |           0      0.00%      0.00% |           1     33.33%     33.33% |           0      0.00%     33.33% |           0      0.00%     33.33% |           0      0.00%     33.33% |           1     33.33%     66.67% |           0      0.00%     66.67% |           0      0.00%     66.67% |           0      0.00%     66.67% |           0      0.00%     66.67% |           0      0.00%     66.67% |           0      0.00%     66.67% |           0      0.00%     66.67% |           0      0.00%     66.67% |           0      0.00%     66.67% |           0      0.00%     66.67% |           0      0.00%     66.67% |           1     33.33%    100.00% |           0      0.00%    100.00% |           0      0.00%    100.00% |           0      0.00%    100.00% |           0      0.00%    100.00% |           0      0.00%    100.00% |           0      0.00%    100.00% |           0      0.00%    100.00% |           0      0.00%    100.00% |           0      0.00%    100.00%
system.ruby.L2Cache_Controller.MT_IB.L1_GETS::total            3                      
system.ruby.L2Cache_Controller.MT_IB.L1_GETX |           0      0.00%      0.00% |           0      0.00%      0.00% |           0      0.00%      0.00% |           0      0.00%      0.00% |           0      0.00%      0.00% |           0      0.00%      0.00% |           0      0.00%      0.00% |           0      0.00%      0.00% |           0      0.00%      0.00% |           0      0.00%      0.00% |           0      0.00%      0.00% |           0      0.00%      0.00% |           0      0.00%      0.00% |           2     66.67%     66.67% |           0      0.00%     66.67% |           0      0.00%     66.67% |           0      0.00%     66.67% |           0      0.00%     66.67% |           0      0.00%     66.67% |           0      0.00%     66.67% |           0      0.00%     66.67% |           0      0.00%     66.67% |           1     33.33%    100.00% |           0      0.00%    100.00% |           0      0.00%    100.00% |           0      0.00%    100.00% |           0      0.00%    100.00% |           0      0.00%    100.00% |           0      0.00%    100.00% |           0      0.00%    100.00% |           0      0.00%    100.00% |           0      0.00%    100.00%
system.ruby.L2Cache_Controller.MT_IB.L1_GETX::total            3                      
system.ruby.L2Cache_Controller.MT_IB.L1_UPGRADE |           1      9.09%      9.09% |           0      0.00%      9.09% |           0      0.00%      9.09% |           0      0.00%      9.09% |           0      0.00%      9.09% |           0      0.00%      9.09% |           0      0.00%      9.09% |           0      0.00%      9.09% |           0      0.00%      9.09% |           0      0.00%      9.09% |           0      0.00%      9.09% |           0      0.00%      9.09% |           0      0.00%      9.09% |           0      0.00%      9.09% |           1      9.09%     18.18% |           0      0.00%     18.18% |           0      0.00%     18.18% |           1      9.09%     27.27% |           1      9.09%     36.36% |           1      9.09%     45.45% |           1      9.09%     54.55% |           0      0.00%     54.55% |           0      0.00%     54.55% |           1      9.09%     63.64% |           1      9.09%     72.73% |           1      9.09%     81.82% |           1      9.09%     90.91% |           1      9.09%    100.00% |           0      0.00%    100.00% |           0      0.00%    100.00% |           0      0.00%    100.00% |           0      0.00%    100.00%
system.ruby.L2Cache_Controller.MT_IB.L1_UPGRADE::total           11                      
system.ruby.L2Cache_Controller.MT_IB.WB_Data |          36      0.67%      0.67% |          57      1.06%      1.73% |         174      3.24%      4.97% |         175      3.26%      8.23% |          97      1.81%     10.03% |         175      3.26%     13.29% |         220      4.10%     17.39% |         227      4.23%     21.61% |         211      3.93%     25.54% |         191      3.56%     29.10% |         160      2.98%     32.07% |         198      3.69%     35.76% |         148      2.76%     38.51% |         195      3.63%     42.14% |         137      2.55%     44.69% |          97      1.81%     46.50% |         180      3.35%     49.85% |         213      3.97%     53.82% |         184      3.43%     57.24% |         183      3.41%     60.65% |         182      3.39%     64.04% |         174      3.24%     67.27% |         135      2.51%     69.79% |         146      2.72%     72.51% |         258      4.80%     77.31% |         124      2.31%     79.62% |         185      3.44%     83.06% |         181      3.37%     86.43% |         126      2.35%     88.78% |         221      4.11%     92.89% |         131      2.44%     95.33% |         251      4.67%    100.00%
system.ruby.L2Cache_Controller.MT_IB.WB_Data::total         5372                      
system.ruby.L2Cache_Controller.MT_IB.WB_Data_clean |           1      0.26%      0.26% |           8      2.11%      2.37% |           9      2.37%      4.74% |          18      4.74%      9.47% |           4      1.05%     10.53% |          14      3.68%     14.21% |          10      2.63%     16.84% |          16      4.21%     21.05% |          20      5.26%     26.32% |           4      1.05%     27.37% |          10      2.63%     30.00% |          18      4.74%     34.74% |           9      2.37%     37.11% |          17      4.47%     41.58% |           8      2.11%     43.68% |           6      1.58%     45.26% |          13      3.42%     48.68% |          18      4.74%     53.42% |          15      3.95%     57.37% |          16      4.21%     61.58% |          10      2.63%     64.21% |           7      1.84%     66.05% |          13      3.42%     69.47% |          14      3.68%     73.16% |          19      5.00%     78.16% |          11      2.89%     81.05% |          10      2.63%     83.68% |          19      5.00%     88.68% |           9      2.37%     91.05% |          16      4.21%     95.26% |           6      1.58%     96.84% |          12      3.16%    100.00%
system.ruby.L2Cache_Controller.MT_IB.WB_Data_clean::total          380                      
system.ruby.L2Cache_Controller.MT_SB.L1_GETS |          34      3.72%      3.72% |          19      2.08%      5.79% |          28      3.06%      8.85% |          29      3.17%     12.02% |          35      3.83%     15.85% |          18      1.97%     17.81% |          27      2.95%     20.77% |          29      3.17%     23.93% |          27      2.95%     26.89% |          33      3.61%     30.49% |          30      3.28%     33.77% |          19      2.08%     35.85% |          28      3.06%     38.91% |          40      4.37%     43.28% |          30      3.28%     46.56% |          36      3.93%     50.49% |          27      2.95%     53.44% |          24      2.62%     56.07% |          30      3.28%     59.34% |          22      2.40%     61.75% |          31      3.39%     65.14% |          29      3.17%     68.31% |          31      3.39%     71.69% |          30      3.28%     74.97% |          37      4.04%     79.02% |          28      3.06%     82.08% |          19      2.08%     84.15% |          23      2.51%     86.67% |          37      4.04%     90.71% |          24      2.62%     93.33% |          29      3.17%     96.50% |          32      3.50%    100.00%
system.ruby.L2Cache_Controller.MT_SB.L1_GETS::total          915                      
system.ruby.L2Cache_Controller.MT_SB.L1_GETX |          11      2.15%      2.15% |          11      2.15%      4.30% |          15      2.93%      7.23% |          10      1.95%      9.18% |          17      3.32%     12.50% |          18      3.52%     16.02% |           9      1.76%     17.77% |          12      2.34%     20.12% |          21      4.10%     24.22% |          13      2.54%     26.76% |          17      3.32%     30.08% |          18      3.52%     33.59% |          18      3.52%     37.11% |          18      3.52%     40.62% |          21      4.10%     44.73% |          19      3.71%     48.44% |          17      3.32%     51.76% |          11      2.15%     53.91% |          16      3.12%     57.03% |          15      2.93%     59.96% |          21      4.10%     64.06% |          11      2.15%     66.21% |          11      2.15%     68.36% |          23      4.49%     72.85% |          23      4.49%     77.34% |          13      2.54%     79.88% |          22      4.30%     84.18% |          22      4.30%     88.48% |          13      2.54%     91.02% |          22      4.30%     95.31% |          13      2.54%     97.85% |          11      2.15%    100.00%
system.ruby.L2Cache_Controller.MT_SB.L1_GETX::total          512                      
system.ruby.L2Cache_Controller.MT_SB.L1_UPGRADE |           9      3.20%      3.20% |          10      3.56%      6.76% |          13      4.63%     11.39% |           8      2.85%     14.23% |           9      3.20%     17.44% |          11      3.91%     21.35% |           5      1.78%     23.13% |           7      2.49%     25.62% |           6      2.14%     27.76% |          11      3.91%     31.67% |          11      3.91%     35.59% |           8      2.85%     38.43% |          10      3.56%     41.99% |           7      2.49%     44.48% |           9      3.20%     47.69% |          13      4.63%     52.31% |           9      3.20%     55.52% |           4      1.42%     56.94% |          10      3.56%     60.50% |           9      3.20%     63.70% |           8      2.85%     66.55% |          11      3.91%     70.46% |          11      3.91%     74.38% |           8      2.85%     77.22% |           5      1.78%     79.00% |          10      3.56%     82.56% |          10      3.56%     86.12% |           5      1.78%     87.90% |           5      1.78%     89.68% |          12      4.27%     93.95% |          12      4.27%     98.22% |           5      1.78%    100.00%
system.ruby.L2Cache_Controller.MT_SB.L1_UPGRADE::total          281                      
system.ruby.L2Cache_Controller.MT_SB.L1_PUTX |           0      0.00%      0.00% |           0      0.00%      0.00% |           0      0.00%      0.00% |           0      0.00%      0.00% |           0      0.00%      0.00% |           0      0.00%      0.00% |           0      0.00%      0.00% |           0      0.00%      0.00% |           0      0.00%      0.00% |           0      0.00%      0.00% |           0      0.00%      0.00% |           0      0.00%      0.00% |           0      0.00%      0.00% |           0      0.00%      0.00% |           0      0.00%      0.00% |           0      0.00%      0.00% |           0      0.00%      0.00% |           0      0.00%      0.00% |           0      0.00%      0.00% |           0      0.00%      0.00% |           0      0.00%      0.00% |           0      0.00%      0.00% |           0      0.00%      0.00% |           0      0.00%      0.00% |           1    100.00%    100.00% |           0      0.00%    100.00% |           0      0.00%    100.00% |           0      0.00%    100.00% |           0      0.00%    100.00% |           0      0.00%    100.00% |           0      0.00%    100.00% |           0      0.00%    100.00%
system.ruby.L2Cache_Controller.MT_SB.L1_PUTX::total            1                      
system.ruby.L2Cache_Controller.MT_SB.Unblock |        7273      3.23%      3.23% |        7119      3.16%      6.38% |        7085      3.14%      9.53% |        7030      3.12%     12.64% |        7234      3.21%     15.85% |        6973      3.09%     18.94% |        6995      3.10%     22.05% |        6991      3.10%     25.15% |        7081      3.14%     28.29% |        6978      3.09%     31.38% |        7008      3.11%     34.49% |        7039      3.12%     37.61% |        7209      3.20%     40.81% |        6914      3.07%     43.88% |        7018      3.11%     46.99% |        7072      3.14%     50.12% |        7218      3.20%     53.33% |        6970      3.09%     56.42% |        6971      3.09%     59.51% |        6906      3.06%     62.57% |        7215      3.20%     65.77% |        7021      3.11%     68.89% |        6989      3.10%     71.99% |        6973      3.09%     75.08% |        7023      3.11%     78.19% |        7085      3.14%     81.33% |        6979      3.10%     84.43% |        6911      3.07%     87.50% |        7206      3.20%     90.69% |        7018      3.11%     93.80% |        7112      3.15%     96.96% |        6859      3.04%    100.00%
system.ruby.L2Cache_Controller.MT_SB.Unblock::total       225475                      
system.ruby.SimicsNetworkPortInterface_Controller.MessageSend |      314917     18.02%     18.02% |      873690     50.00%     68.02% |       70094      4.01%     72.03% |       75090      4.30%     76.33% |       69818      4.00%     80.33% |       74970      4.29%     84.62% |       69845      4.00%     88.61% |       74844      4.28%     92.90% |       59095      3.38%     96.28% |       65017      3.72%    100.00% |           0      0.00%    100.00% |           0      0.00%    100.00% |           0      0.00%    100.00% |           0      0.00%    100.00% |           0      0.00%    100.00% |           0      0.00%    100.00% |           0      0.00%    100.00% |           0      0.00%    100.00% |           0      0.00%    100.00% |           0      0.00%    100.00% |           0      0.00%    100.00% |           0      0.00%    100.00% |           0      0.00%    100.00% |           0      0.00%    100.00% |           0      0.00%    100.00% |           0      0.00%    100.00% |           0      0.00%    100.00% |           0      0.00%    100.00% |           0      0.00%    100.00% |           0      0.00%    100.00% |           0      0.00%    100.00% |           0      0.00%    100.00%
system.ruby.SimicsNetworkPortInterface_Controller.MessageSend::total      1747380                      
system.ruby.SimicsNetworkPortInterface_Controller.MessageRecv |      314917     18.02%     18.02% |      873690     50.00%     68.02% |       70094      4.01%     72.03% |       75090      4.30%     76.33% |       69818      4.00%     80.33% |       74970      4.29%     84.62% |       69845      4.00%     88.61% |       74844      4.28%     92.90% |       59095      3.38%     96.28% |       65017      3.72%    100.00% |           0      0.00%    100.00% |           0      0.00%    100.00% |           0      0.00%    100.00% |           0      0.00%    100.00% |           0      0.00%    100.00% |           0      0.00%    100.00% |           0      0.00%    100.00% |           0      0.00%    100.00% |           0      0.00%    100.00% |           0      0.00%    100.00% |           0      0.00%    100.00% |           0      0.00%    100.00% |           0      0.00%    100.00% |           0      0.00%    100.00% |           0      0.00%    100.00% |           0      0.00%    100.00% |           0      0.00%    100.00% |           0      0.00%    100.00% |           0      0.00%    100.00% |           0      0.00%    100.00% |           0      0.00%    100.00% |           0      0.00%    100.00%
system.ruby.SimicsNetworkPortInterface_Controller.MessageRecv::total      1747380                      
system.ruby.SimicsNetworkPortInterface_Controller.A.MessageSend |      314917     18.02%     18.02% |      873690     50.00%     68.02% |       70094      4.01%     72.03% |       75090      4.30%     76.33% |       69818      4.00%     80.33% |       74970      4.29%     84.62% |       69845      4.00%     88.61% |       74844      4.28%     92.90% |       59095      3.38%     96.28% |       65017      3.72%    100.00% |           0      0.00%    100.00% |           0      0.00%    100.00% |           0      0.00%    100.00% |           0      0.00%    100.00% |           0      0.00%    100.00% |           0      0.00%    100.00% |           0      0.00%    100.00% |           0      0.00%    100.00% |           0      0.00%    100.00% |           0      0.00%    100.00% |           0      0.00%    100.00% |           0      0.00%    100.00% |           0      0.00%    100.00% |           0      0.00%    100.00% |           0      0.00%    100.00% |           0      0.00%    100.00% |           0      0.00%    100.00% |           0      0.00%    100.00% |           0      0.00%    100.00% |           0      0.00%    100.00% |           0      0.00%    100.00% |           0      0.00%    100.00%
system.ruby.SimicsNetworkPortInterface_Controller.A.MessageSend::total      1747380                      
system.ruby.SimicsNetworkPortInterface_Controller.A.MessageRecv |      314917     18.02%     18.02% |      873690     50.00%     68.02% |       70094      4.01%     72.03% |       75090      4.30%     76.33% |       69818      4.00%     80.33% |       74970      4.29%     84.62% |       69845      4.00%     88.61% |       74844      4.28%     92.90% |       59095      3.38%     96.28% |       65017      3.72%    100.00% |           0      0.00%    100.00% |           0      0.00%    100.00% |           0      0.00%    100.00% |           0      0.00%    100.00% |           0      0.00%    100.00% |           0      0.00%    100.00% |           0      0.00%    100.00% |           0      0.00%    100.00% |           0      0.00%    100.00% |           0      0.00%    100.00% |           0      0.00%    100.00% |           0      0.00%    100.00% |           0      0.00%    100.00% |           0      0.00%    100.00% |           0      0.00%    100.00% |           0      0.00%    100.00% |           0      0.00%    100.00% |           0      0.00%    100.00% |           0      0.00%    100.00% |           0      0.00%    100.00% |           0      0.00%    100.00% |           0      0.00%    100.00%
system.ruby.SimicsNetworkPortInterface_Controller.A.MessageRecv::total      1747380                      
system.switch_cpus.kern.inst.arm                    0                       # number of arm instructions executed
system.switch_cpus.kern.inst.quiesce                0                       # number of quiesce instructions executed

---------- End Simulation Statistics   ----------
