
---------- Begin Simulation Statistics ----------
sim_seconds                                  0.038834                       # Number of seconds simulated
sim_ticks                                 38833861000                       # Number of ticks simulated
final_tick                               5215001939500                       # Number of ticks from beginning of simulation (restored from checkpoints and never reset)
sim_freq                                 1000000000000                       # Frequency of simulated ticks
host_inst_rate                                  97542                       # Simulator instruction rate (inst/s)
host_op_rate                                   171742                       # Simulator op (including micro ops) rate (op/s)
host_tick_rate                              208352247                       # Simulator tick rate (ticks/s)
host_mem_usage                                3272156                       # Number of bytes of host memory used
host_seconds                                   186.39                       # Real time elapsed on the host
sim_insts                                    18180486                       # Number of instructions simulated
sim_ops                                      32010214                       # Number of ops (including micro ops) simulated
system.voltage_domain.voltage                       1                       # Voltage in Volts
system.clk_domain.clock                           500                       # Clock period in ticks
system.mem_ctrls0.bytes_read::ruby.dir_cntrl0      4688768                       # Number of bytes read from this memory
system.mem_ctrls0.bytes_read::total           4688768                       # Number of bytes read from this memory
system.mem_ctrls0.bytes_written::ruby.dir_cntrl0      2862144                       # Number of bytes written to this memory
system.mem_ctrls0.bytes_written::total        2862144                       # Number of bytes written to this memory
system.mem_ctrls0.num_reads::ruby.dir_cntrl0        73262                       # Number of read requests responded to by this memory
system.mem_ctrls0.num_reads::total              73262                       # Number of read requests responded to by this memory
system.mem_ctrls0.num_writes::ruby.dir_cntrl0        44721                       # Number of write requests responded to by this memory
system.mem_ctrls0.num_writes::total             44721                       # Number of write requests responded to by this memory
system.mem_ctrls0.bw_read::ruby.dir_cntrl0    120739166                       # Total read bandwidth from this memory (bytes/s)
system.mem_ctrls0.bw_read::total            120739166                       # Total read bandwidth from this memory (bytes/s)
system.mem_ctrls0.bw_write::ruby.dir_cntrl0     73702278                       # Write bandwidth from this memory (bytes/s)
system.mem_ctrls0.bw_write::total            73702278                       # Write bandwidth from this memory (bytes/s)
system.mem_ctrls0.bw_total::ruby.dir_cntrl0    194441444                       # Total bandwidth to/from this memory (bytes/s)
system.mem_ctrls0.bw_total::total           194441444                       # Total bandwidth to/from this memory (bytes/s)
system.mem_ctrls0.readReqs                      73262                       # Number of read requests accepted
system.mem_ctrls0.writeReqs                     44721                       # Number of write requests accepted
system.mem_ctrls0.readBursts                    73262                       # Number of DRAM read bursts, including those serviced by the write queue
system.mem_ctrls0.writeBursts                   44721                       # Number of DRAM write bursts, including those merged in the write queue
system.mem_ctrls0.bytesReadDRAM               4687936                       # Total number of bytes read from DRAM
system.mem_ctrls0.bytesReadWrQ                    832                       # Total number of bytes read from write queue
system.mem_ctrls0.bytesWritten                2862016                       # Total number of bytes written to DRAM
system.mem_ctrls0.bytesReadSys                4688768                       # Total read bytes from the system interface side
system.mem_ctrls0.bytesWrittenSys             2862144                       # Total written bytes from the system interface side
system.mem_ctrls0.servicedByWrQ                    13                       # Number of DRAM read bursts serviced by the write queue
system.mem_ctrls0.mergedWrBursts                    0                       # Number of DRAM write bursts merged with an existing one
system.mem_ctrls0.neitherReadNorWriteReqs            0                       # Number of requests that are neither read nor write
system.mem_ctrls0.perBankRdBursts::0             4426                       # Per bank write bursts
system.mem_ctrls0.perBankRdBursts::1             4891                       # Per bank write bursts
system.mem_ctrls0.perBankRdBursts::2             4541                       # Per bank write bursts
system.mem_ctrls0.perBankRdBursts::3             4886                       # Per bank write bursts
system.mem_ctrls0.perBankRdBursts::4             4634                       # Per bank write bursts
system.mem_ctrls0.perBankRdBursts::5             4726                       # Per bank write bursts
system.mem_ctrls0.perBankRdBursts::6             4552                       # Per bank write bursts
system.mem_ctrls0.perBankRdBursts::7             4523                       # Per bank write bursts
system.mem_ctrls0.perBankRdBursts::8             4505                       # Per bank write bursts
system.mem_ctrls0.perBankRdBursts::9             4793                       # Per bank write bursts
system.mem_ctrls0.perBankRdBursts::10            4517                       # Per bank write bursts
system.mem_ctrls0.perBankRdBursts::11            4732                       # Per bank write bursts
system.mem_ctrls0.perBankRdBursts::12            4351                       # Per bank write bursts
system.mem_ctrls0.perBankRdBursts::13            4197                       # Per bank write bursts
system.mem_ctrls0.perBankRdBursts::14            4469                       # Per bank write bursts
system.mem_ctrls0.perBankRdBursts::15            4506                       # Per bank write bursts
system.mem_ctrls0.perBankWrBursts::0             2818                       # Per bank write bursts
system.mem_ctrls0.perBankWrBursts::1             2810                       # Per bank write bursts
system.mem_ctrls0.perBankWrBursts::2             2793                       # Per bank write bursts
system.mem_ctrls0.perBankWrBursts::3             2882                       # Per bank write bursts
system.mem_ctrls0.perBankWrBursts::4             2801                       # Per bank write bursts
system.mem_ctrls0.perBankWrBursts::5             2939                       # Per bank write bursts
system.mem_ctrls0.perBankWrBursts::6             2769                       # Per bank write bursts
system.mem_ctrls0.perBankWrBursts::7             2846                       # Per bank write bursts
system.mem_ctrls0.perBankWrBursts::8             2739                       # Per bank write bursts
system.mem_ctrls0.perBankWrBursts::9             2919                       # Per bank write bursts
system.mem_ctrls0.perBankWrBursts::10            2766                       # Per bank write bursts
system.mem_ctrls0.perBankWrBursts::11            2698                       # Per bank write bursts
system.mem_ctrls0.perBankWrBursts::12            2633                       # Per bank write bursts
system.mem_ctrls0.perBankWrBursts::13            2669                       # Per bank write bursts
system.mem_ctrls0.perBankWrBursts::14            2876                       # Per bank write bursts
system.mem_ctrls0.perBankWrBursts::15            2761                       # Per bank write bursts
system.mem_ctrls0.numRdRetry                      420                       # Number of times read queue was full causing retry
system.mem_ctrls0.numWrRetry                     2361                       # Number of times write queue was full causing retry
system.mem_ctrls0.totGap                  38833348500                       # Total gap between requests
system.mem_ctrls0.readPktSize::0                    0                       # Read request sizes (log2)
system.mem_ctrls0.readPktSize::1                    0                       # Read request sizes (log2)
system.mem_ctrls0.readPktSize::2                    0                       # Read request sizes (log2)
system.mem_ctrls0.readPktSize::3                    0                       # Read request sizes (log2)
system.mem_ctrls0.readPktSize::4                    0                       # Read request sizes (log2)
system.mem_ctrls0.readPktSize::5                    0                       # Read request sizes (log2)
system.mem_ctrls0.readPktSize::6                73262                       # Read request sizes (log2)
system.mem_ctrls0.writePktSize::0                   0                       # Write request sizes (log2)
system.mem_ctrls0.writePktSize::1                   0                       # Write request sizes (log2)
system.mem_ctrls0.writePktSize::2                   0                       # Write request sizes (log2)
system.mem_ctrls0.writePktSize::3                   0                       # Write request sizes (log2)
system.mem_ctrls0.writePktSize::4                   0                       # Write request sizes (log2)
system.mem_ctrls0.writePktSize::5                   0                       # Write request sizes (log2)
system.mem_ctrls0.writePktSize::6               44721                       # Write request sizes (log2)
system.mem_ctrls0.rdQLenPdf::0                  45800                       # What read queue length does an incoming req see
system.mem_ctrls0.rdQLenPdf::1                   4414                       # What read queue length does an incoming req see
system.mem_ctrls0.rdQLenPdf::2                   3595                       # What read queue length does an incoming req see
system.mem_ctrls0.rdQLenPdf::3                   2798                       # What read queue length does an incoming req see
system.mem_ctrls0.rdQLenPdf::4                   2292                       # What read queue length does an incoming req see
system.mem_ctrls0.rdQLenPdf::5                   1954                       # What read queue length does an incoming req see
system.mem_ctrls0.rdQLenPdf::6                   1610                       # What read queue length does an incoming req see
system.mem_ctrls0.rdQLenPdf::7                   1372                       # What read queue length does an incoming req see
system.mem_ctrls0.rdQLenPdf::8                   1158                       # What read queue length does an incoming req see
system.mem_ctrls0.rdQLenPdf::9                    954                       # What read queue length does an incoming req see
system.mem_ctrls0.rdQLenPdf::10                   847                       # What read queue length does an incoming req see
system.mem_ctrls0.rdQLenPdf::11                   741                       # What read queue length does an incoming req see
system.mem_ctrls0.rdQLenPdf::12                   644                       # What read queue length does an incoming req see
system.mem_ctrls0.rdQLenPdf::13                   589                       # What read queue length does an incoming req see
system.mem_ctrls0.rdQLenPdf::14                   491                       # What read queue length does an incoming req see
system.mem_ctrls0.rdQLenPdf::15                   428                       # What read queue length does an incoming req see
system.mem_ctrls0.rdQLenPdf::16                   343                       # What read queue length does an incoming req see
system.mem_ctrls0.rdQLenPdf::17                   324                       # What read queue length does an incoming req see
system.mem_ctrls0.rdQLenPdf::18                   279                       # What read queue length does an incoming req see
system.mem_ctrls0.rdQLenPdf::19                   236                       # What read queue length does an incoming req see
system.mem_ctrls0.rdQLenPdf::20                   230                       # What read queue length does an incoming req see
system.mem_ctrls0.rdQLenPdf::21                   226                       # What read queue length does an incoming req see
system.mem_ctrls0.rdQLenPdf::22                   193                       # What read queue length does an incoming req see
system.mem_ctrls0.rdQLenPdf::23                   169                       # What read queue length does an incoming req see
system.mem_ctrls0.rdQLenPdf::24                   164                       # What read queue length does an incoming req see
system.mem_ctrls0.rdQLenPdf::25                   162                       # What read queue length does an incoming req see
system.mem_ctrls0.rdQLenPdf::26                   149                       # What read queue length does an incoming req see
system.mem_ctrls0.rdQLenPdf::27                   142                       # What read queue length does an incoming req see
system.mem_ctrls0.rdQLenPdf::28                   140                       # What read queue length does an incoming req see
system.mem_ctrls0.rdQLenPdf::29                   132                       # What read queue length does an incoming req see
system.mem_ctrls0.rdQLenPdf::30                   132                       # What read queue length does an incoming req see
system.mem_ctrls0.rdQLenPdf::31                   541                       # What read queue length does an incoming req see
system.mem_ctrls0.wrQLenPdf::0                   7730                       # What write queue length does an incoming req see
system.mem_ctrls0.wrQLenPdf::1                   7987                       # What write queue length does an incoming req see
system.mem_ctrls0.wrQLenPdf::2                   8162                       # What write queue length does an incoming req see
system.mem_ctrls0.wrQLenPdf::3                   8208                       # What write queue length does an incoming req see
system.mem_ctrls0.wrQLenPdf::4                   8292                       # What write queue length does an incoming req see
system.mem_ctrls0.wrQLenPdf::5                    749                       # What write queue length does an incoming req see
system.mem_ctrls0.wrQLenPdf::6                    658                       # What write queue length does an incoming req see
system.mem_ctrls0.wrQLenPdf::7                   2935                       # What write queue length does an incoming req see
system.mem_ctrls0.bytesPerActivate::samples        32395                       # Bytes accessed per row activation
system.mem_ctrls0.bytesPerActivate::mean   233.029542                       # Bytes accessed per row activation
system.mem_ctrls0.bytesPerActivate::gmean   157.176760                       # Bytes accessed per row activation
system.mem_ctrls0.bytesPerActivate::stdev   234.235910                       # Bytes accessed per row activation
system.mem_ctrls0.bytesPerActivate::0-127        12651     39.05%     39.05% # Bytes accessed per row activation
system.mem_ctrls0.bytesPerActivate::128-255         7210     22.26%     61.31% # Bytes accessed per row activation
system.mem_ctrls0.bytesPerActivate::256-383         8049     24.85%     86.16% # Bytes accessed per row activation
system.mem_ctrls0.bytesPerActivate::384-511         1073      3.31%     89.47% # Bytes accessed per row activation
system.mem_ctrls0.bytesPerActivate::512-639          757      2.34%     91.80% # Bytes accessed per row activation
system.mem_ctrls0.bytesPerActivate::640-767          579      1.79%     93.59% # Bytes accessed per row activation
system.mem_ctrls0.bytesPerActivate::768-895          451      1.39%     94.98% # Bytes accessed per row activation
system.mem_ctrls0.bytesPerActivate::896-1023          431      1.33%     96.31% # Bytes accessed per row activation
system.mem_ctrls0.bytesPerActivate::1024-1151         1194      3.69%    100.00% # Bytes accessed per row activation
system.mem_ctrls0.bytesPerActivate::total        32395                       # Bytes accessed per row activation
system.mem_ctrls0.rdPerTurnAround::samples         7965                       # Reads before turning the bus around for writes
system.mem_ctrls0.rdPerTurnAround::mean      9.194225                       # Reads before turning the bus around for writes
system.mem_ctrls0.rdPerTurnAround::stdev    46.013331                       # Reads before turning the bus around for writes
system.mem_ctrls0.rdPerTurnAround::0-127         7958     99.91%     99.91% # Reads before turning the bus around for writes
system.mem_ctrls0.rdPerTurnAround::128-255            6      0.08%     99.99% # Reads before turning the bus around for writes
system.mem_ctrls0.rdPerTurnAround::3968-4095            1      0.01%    100.00% # Reads before turning the bus around for writes
system.mem_ctrls0.rdPerTurnAround::total         7965                       # Reads before turning the bus around for writes
system.mem_ctrls0.wrPerTurnAround::samples         7965                       # Writes before turning the bus around for reads
system.mem_ctrls0.wrPerTurnAround::mean      5.614438                       # Writes before turning the bus around for reads
system.mem_ctrls0.wrPerTurnAround::gmean     5.387189                       # Writes before turning the bus around for reads
system.mem_ctrls0.wrPerTurnAround::stdev     2.204538                       # Writes before turning the bus around for reads
system.mem_ctrls0.wrPerTurnAround::4-7           7447     93.50%     93.50% # Writes before turning the bus around for reads
system.mem_ctrls0.wrPerTurnAround::8-11           162      2.03%     95.53% # Writes before turning the bus around for reads
system.mem_ctrls0.wrPerTurnAround::12-15          101      1.27%     96.80% # Writes before turning the bus around for reads
system.mem_ctrls0.wrPerTurnAround::16-19          255      3.20%    100.00% # Writes before turning the bus around for reads
system.mem_ctrls0.wrPerTurnAround::total         7965                       # Writes before turning the bus around for reads
system.mem_ctrls0.totQLat                  3355779277                       # Total ticks spent queuing
system.mem_ctrls0.totMemAccLat             4729198027                       # Total ticks spent from burst creation until serviced by the DRAM
system.mem_ctrls0.totBusLat                 366245000                       # Total ticks spent in databus transfers
system.mem_ctrls0.avgQLat                    45813.31                       # Average queueing delay per DRAM burst
system.mem_ctrls0.avgBusLat                   5000.00                       # Average bus latency per DRAM burst
system.mem_ctrls0.avgMemAccLat               64563.31                       # Average memory access latency per DRAM burst
system.mem_ctrls0.avgRdBW                      120.72                       # Average DRAM read bandwidth in MiByte/s
system.mem_ctrls0.avgWrBW                       73.70                       # Average achieved write bandwidth in MiByte/s
system.mem_ctrls0.avgRdBWSys                   120.74                       # Average system read bandwidth in MiByte/s
system.mem_ctrls0.avgWrBWSys                    73.70                       # Average system write bandwidth in MiByte/s
system.mem_ctrls0.peakBW                     12800.00                       # Theoretical peak bandwidth in MiByte/s
system.mem_ctrls0.busUtil                        1.52                       # Data bus utilization in percentage
system.mem_ctrls0.busUtilRead                    0.94                       # Data bus utilization in percentage for reads
system.mem_ctrls0.busUtilWrite                   0.58                       # Data bus utilization in percentage for writes
system.mem_ctrls0.avgRdQLen                      1.12                       # Average read queue length when enqueuing
system.mem_ctrls0.avgWrQLen                      2.87                       # Average write queue length when enqueuing
system.mem_ctrls0.readRowHits                   56172                       # Number of row buffer hits during reads
system.mem_ctrls0.writeRowHits                  29392                       # Number of row buffer hits during writes
system.mem_ctrls0.readRowHitRate                76.69                       # Row buffer hit rate for reads
system.mem_ctrls0.writeRowHitRate               65.72                       # Row buffer hit rate for writes
system.mem_ctrls0.avgGap                    329143.59                       # Average gap between requests
system.mem_ctrls0.pageHitRate                   72.53                       # Row buffer hit rate, read and write combined
system.mem_ctrls0.memoryStateTime::IDLE   10429582000                       # Time in different power states
system.mem_ctrls0.memoryStateTime::REF     1296620000                       # Time in different power states
system.mem_ctrls0.memoryStateTime::PRE_PDN            0                       # Time in different power states
system.mem_ctrls0.memoryStateTime::ACT    27104344500                       # Time in different power states
system.mem_ctrls0.memoryStateTime::ACT_PDN            0                       # Time in different power states
system.mem_ctrls0.actEnergy::0              126577080                       # Energy for activate commands per rank (pJ)
system.mem_ctrls0.actEnergy::1              118283760                       # Energy for activate commands per rank (pJ)
system.mem_ctrls0.preEnergy::0               69064875                       # Energy for precharge commands per rank (pJ)
system.mem_ctrls0.preEnergy::1               64539750                       # Energy for precharge commands per rank (pJ)
system.mem_ctrls0.readEnergy::0             289933800                       # Energy for read commands per rank (pJ)
system.mem_ctrls0.readEnergy::1             281244600                       # Energy for read commands per rank (pJ)
system.mem_ctrls0.writeEnergy::0            146791440                       # Energy for write commands per rank (pJ)
system.mem_ctrls0.writeEnergy::1            142955280                       # Energy for write commands per rank (pJ)
system.mem_ctrls0.refreshEnergy::0         2536188720                       # Energy for refresh commands per rank (pJ)
system.mem_ctrls0.refreshEnergy::1         2536188720                       # Energy for refresh commands per rank (pJ)
system.mem_ctrls0.actBackEnergy::0        14180907735                       # Energy for active background per rank (pJ)
system.mem_ctrls0.actBackEnergy::1        13807777185                       # Energy for active background per rank (pJ)
system.mem_ctrls0.preBackEnergy::0        10858780500                       # Energy for precharge background per rank (pJ)
system.mem_ctrls0.preBackEnergy::1        11186088000                       # Energy for precharge background per rank (pJ)
system.mem_ctrls0.totalEnergy::0          28208244150                       # Total energy per rank (pJ)
system.mem_ctrls0.totalEnergy::1          28137077295                       # Total energy per rank (pJ)
system.mem_ctrls0.averagePower::0          726.449508                       # Core power per rank (mW)
system.mem_ctrls0.averagePower::1          724.616741                       # Core power per rank (mW)
system.mem_ctrls1.bytes_read::ruby.dir_cntrl1      4564288                       # Number of bytes read from this memory
system.mem_ctrls1.bytes_read::total           4564288                       # Number of bytes read from this memory
system.mem_ctrls1.bytes_written::ruby.dir_cntrl1      2746624                       # Number of bytes written to this memory
system.mem_ctrls1.bytes_written::total        2746624                       # Number of bytes written to this memory
system.mem_ctrls1.num_reads::ruby.dir_cntrl1        71317                       # Number of read requests responded to by this memory
system.mem_ctrls1.num_reads::total              71317                       # Number of read requests responded to by this memory
system.mem_ctrls1.num_writes::ruby.dir_cntrl1        42916                       # Number of write requests responded to by this memory
system.mem_ctrls1.num_writes::total             42916                       # Number of write requests responded to by this memory
system.mem_ctrls1.bw_read::ruby.dir_cntrl1    117533716                       # Total read bandwidth from this memory (bytes/s)
system.mem_ctrls1.bw_read::total            117533716                       # Total read bandwidth from this memory (bytes/s)
system.mem_ctrls1.bw_write::ruby.dir_cntrl1     70727554                       # Write bandwidth from this memory (bytes/s)
system.mem_ctrls1.bw_write::total            70727554                       # Write bandwidth from this memory (bytes/s)
system.mem_ctrls1.bw_total::ruby.dir_cntrl1    188261270                       # Total bandwidth to/from this memory (bytes/s)
system.mem_ctrls1.bw_total::total           188261270                       # Total bandwidth to/from this memory (bytes/s)
system.mem_ctrls1.readReqs                      71317                       # Number of read requests accepted
system.mem_ctrls1.writeReqs                     42916                       # Number of write requests accepted
system.mem_ctrls1.readBursts                    71317                       # Number of DRAM read bursts, including those serviced by the write queue
system.mem_ctrls1.writeBursts                   42916                       # Number of DRAM write bursts, including those merged in the write queue
system.mem_ctrls1.bytesReadDRAM               4563200                       # Total number of bytes read from DRAM
system.mem_ctrls1.bytesReadWrQ                   1088                       # Total number of bytes read from write queue
system.mem_ctrls1.bytesWritten                2746432                       # Total number of bytes written to DRAM
system.mem_ctrls1.bytesReadSys                4564288                       # Total read bytes from the system interface side
system.mem_ctrls1.bytesWrittenSys             2746624                       # Total written bytes from the system interface side
system.mem_ctrls1.servicedByWrQ                    17                       # Number of DRAM read bursts serviced by the write queue
system.mem_ctrls1.mergedWrBursts                    0                       # Number of DRAM write bursts merged with an existing one
system.mem_ctrls1.neitherReadNorWriteReqs            0                       # Number of requests that are neither read nor write
system.mem_ctrls1.perBankRdBursts::0             4309                       # Per bank write bursts
system.mem_ctrls1.perBankRdBursts::1             4752                       # Per bank write bursts
system.mem_ctrls1.perBankRdBursts::2             4420                       # Per bank write bursts
system.mem_ctrls1.perBankRdBursts::3             4767                       # Per bank write bursts
system.mem_ctrls1.perBankRdBursts::4             4524                       # Per bank write bursts
system.mem_ctrls1.perBankRdBursts::5             4631                       # Per bank write bursts
system.mem_ctrls1.perBankRdBursts::6             4426                       # Per bank write bursts
system.mem_ctrls1.perBankRdBursts::7             4426                       # Per bank write bursts
system.mem_ctrls1.perBankRdBursts::8             4375                       # Per bank write bursts
system.mem_ctrls1.perBankRdBursts::9             4671                       # Per bank write bursts
system.mem_ctrls1.perBankRdBursts::10            4400                       # Per bank write bursts
system.mem_ctrls1.perBankRdBursts::11            4614                       # Per bank write bursts
system.mem_ctrls1.perBankRdBursts::12            4228                       # Per bank write bursts
system.mem_ctrls1.perBankRdBursts::13            4084                       # Per bank write bursts
system.mem_ctrls1.perBankRdBursts::14            4274                       # Per bank write bursts
system.mem_ctrls1.perBankRdBursts::15            4399                       # Per bank write bursts
system.mem_ctrls1.perBankWrBursts::0             2710                       # Per bank write bursts
system.mem_ctrls1.perBankWrBursts::1             2714                       # Per bank write bursts
system.mem_ctrls1.perBankWrBursts::2             2691                       # Per bank write bursts
system.mem_ctrls1.perBankWrBursts::3             2773                       # Per bank write bursts
system.mem_ctrls1.perBankWrBursts::4             2699                       # Per bank write bursts
system.mem_ctrls1.perBankWrBursts::5             2830                       # Per bank write bursts
system.mem_ctrls1.perBankWrBursts::6             2643                       # Per bank write bursts
system.mem_ctrls1.perBankWrBursts::7             2732                       # Per bank write bursts
system.mem_ctrls1.perBankWrBursts::8             2629                       # Per bank write bursts
system.mem_ctrls1.perBankWrBursts::9             2805                       # Per bank write bursts
system.mem_ctrls1.perBankWrBursts::10            2661                       # Per bank write bursts
system.mem_ctrls1.perBankWrBursts::11            2586                       # Per bank write bursts
system.mem_ctrls1.perBankWrBursts::12            2527                       # Per bank write bursts
system.mem_ctrls1.perBankWrBursts::13            2553                       # Per bank write bursts
system.mem_ctrls1.perBankWrBursts::14            2708                       # Per bank write bursts
system.mem_ctrls1.perBankWrBursts::15            2652                       # Per bank write bursts
system.mem_ctrls1.numRdRetry                      343                       # Number of times read queue was full causing retry
system.mem_ctrls1.numWrRetry                     2265                       # Number of times write queue was full causing retry
system.mem_ctrls1.totGap                  38833096500                       # Total gap between requests
system.mem_ctrls1.readPktSize::0                    0                       # Read request sizes (log2)
system.mem_ctrls1.readPktSize::1                    0                       # Read request sizes (log2)
system.mem_ctrls1.readPktSize::2                    0                       # Read request sizes (log2)
system.mem_ctrls1.readPktSize::3                    0                       # Read request sizes (log2)
system.mem_ctrls1.readPktSize::4                    0                       # Read request sizes (log2)
system.mem_ctrls1.readPktSize::5                    0                       # Read request sizes (log2)
system.mem_ctrls1.readPktSize::6                71317                       # Read request sizes (log2)
system.mem_ctrls1.writePktSize::0                   0                       # Write request sizes (log2)
system.mem_ctrls1.writePktSize::1                   0                       # Write request sizes (log2)
system.mem_ctrls1.writePktSize::2                   0                       # Write request sizes (log2)
system.mem_ctrls1.writePktSize::3                   0                       # Write request sizes (log2)
system.mem_ctrls1.writePktSize::4                   0                       # Write request sizes (log2)
system.mem_ctrls1.writePktSize::5                   0                       # Write request sizes (log2)
system.mem_ctrls1.writePktSize::6               42916                       # Write request sizes (log2)
system.mem_ctrls1.rdQLenPdf::0                  44974                       # What read queue length does an incoming req see
system.mem_ctrls1.rdQLenPdf::1                   3902                       # What read queue length does an incoming req see
system.mem_ctrls1.rdQLenPdf::2                   3309                       # What read queue length does an incoming req see
system.mem_ctrls1.rdQLenPdf::3                   2744                       # What read queue length does an incoming req see
system.mem_ctrls1.rdQLenPdf::4                   2302                       # What read queue length does an incoming req see
system.mem_ctrls1.rdQLenPdf::5                   1924                       # What read queue length does an incoming req see
system.mem_ctrls1.rdQLenPdf::6                   1619                       # What read queue length does an incoming req see
system.mem_ctrls1.rdQLenPdf::7                   1410                       # What read queue length does an incoming req see
system.mem_ctrls1.rdQLenPdf::8                   1190                       # What read queue length does an incoming req see
system.mem_ctrls1.rdQLenPdf::9                   1031                       # What read queue length does an incoming req see
system.mem_ctrls1.rdQLenPdf::10                   893                       # What read queue length does an incoming req see
system.mem_ctrls1.rdQLenPdf::11                   752                       # What read queue length does an incoming req see
system.mem_ctrls1.rdQLenPdf::12                   632                       # What read queue length does an incoming req see
system.mem_ctrls1.rdQLenPdf::13                   488                       # What read queue length does an incoming req see
system.mem_ctrls1.rdQLenPdf::14                   435                       # What read queue length does an incoming req see
system.mem_ctrls1.rdQLenPdf::15                   385                       # What read queue length does an incoming req see
system.mem_ctrls1.rdQLenPdf::16                   336                       # What read queue length does an incoming req see
system.mem_ctrls1.rdQLenPdf::17                   324                       # What read queue length does an incoming req see
system.mem_ctrls1.rdQLenPdf::18                   279                       # What read queue length does an incoming req see
system.mem_ctrls1.rdQLenPdf::19                   269                       # What read queue length does an incoming req see
system.mem_ctrls1.rdQLenPdf::20                   224                       # What read queue length does an incoming req see
system.mem_ctrls1.rdQLenPdf::21                   203                       # What read queue length does an incoming req see
system.mem_ctrls1.rdQLenPdf::22                   168                       # What read queue length does an incoming req see
system.mem_ctrls1.rdQLenPdf::23                   161                       # What read queue length does an incoming req see
system.mem_ctrls1.rdQLenPdf::24                   164                       # What read queue length does an incoming req see
system.mem_ctrls1.rdQLenPdf::25                   138                       # What read queue length does an incoming req see
system.mem_ctrls1.rdQLenPdf::26                   147                       # What read queue length does an incoming req see
system.mem_ctrls1.rdQLenPdf::27                   126                       # What read queue length does an incoming req see
system.mem_ctrls1.rdQLenPdf::28                   119                       # What read queue length does an incoming req see
system.mem_ctrls1.rdQLenPdf::29                   110                       # What read queue length does an incoming req see
system.mem_ctrls1.rdQLenPdf::30                    96                       # What read queue length does an incoming req see
system.mem_ctrls1.rdQLenPdf::31                   446                       # What read queue length does an incoming req see
system.mem_ctrls1.wrQLenPdf::0                   7424                       # What write queue length does an incoming req see
system.mem_ctrls1.wrQLenPdf::1                   7625                       # What write queue length does an incoming req see
system.mem_ctrls1.wrQLenPdf::2                   7759                       # What write queue length does an incoming req see
system.mem_ctrls1.wrQLenPdf::3                   7875                       # What write queue length does an incoming req see
system.mem_ctrls1.wrQLenPdf::4                   8005                       # What write queue length does an incoming req see
system.mem_ctrls1.wrQLenPdf::5                    731                       # What write queue length does an incoming req see
system.mem_ctrls1.wrQLenPdf::6                    638                       # What write queue length does an incoming req see
system.mem_ctrls1.wrQLenPdf::7                   2859                       # What write queue length does an incoming req see
system.mem_ctrls1.bytesPerActivate::samples        28558                       # Bytes accessed per row activation
system.mem_ctrls1.bytesPerActivate::mean   255.930527                       # Bytes accessed per row activation
system.mem_ctrls1.bytesPerActivate::gmean   175.920474                       # Bytes accessed per row activation
system.mem_ctrls1.bytesPerActivate::stdev   241.684248                       # Bytes accessed per row activation
system.mem_ctrls1.bytesPerActivate::0-127         9301     32.57%     32.57% # Bytes accessed per row activation
system.mem_ctrls1.bytesPerActivate::128-255         6622     23.19%     55.76% # Bytes accessed per row activation
system.mem_ctrls1.bytesPerActivate::256-383         7968     27.90%     83.66% # Bytes accessed per row activation
system.mem_ctrls1.bytesPerActivate::384-511         1189      4.16%     87.82% # Bytes accessed per row activation
system.mem_ctrls1.bytesPerActivate::512-639          843      2.95%     90.77% # Bytes accessed per row activation
system.mem_ctrls1.bytesPerActivate::640-767          541      1.89%     92.67% # Bytes accessed per row activation
system.mem_ctrls1.bytesPerActivate::768-895          473      1.66%     94.32% # Bytes accessed per row activation
system.mem_ctrls1.bytesPerActivate::896-1023          451      1.58%     95.90% # Bytes accessed per row activation
system.mem_ctrls1.bytesPerActivate::1024-1151         1170      4.10%    100.00% # Bytes accessed per row activation
system.mem_ctrls1.bytesPerActivate::total        28558                       # Bytes accessed per row activation
system.mem_ctrls1.rdPerTurnAround::samples         7642                       # Reads before turning the bus around for writes
system.mem_ctrls1.rdPerTurnAround::mean      9.325438                       # Reads before turning the bus around for writes
system.mem_ctrls1.rdPerTurnAround::stdev    37.428401                       # Reads before turning the bus around for writes
system.mem_ctrls1.rdPerTurnAround::0-127         7634     99.90%     99.90% # Reads before turning the bus around for writes
system.mem_ctrls1.rdPerTurnAround::128-255            6      0.08%     99.97% # Reads before turning the bus around for writes
system.mem_ctrls1.rdPerTurnAround::1152-1279            1      0.01%     99.99% # Reads before turning the bus around for writes
system.mem_ctrls1.rdPerTurnAround::2816-2943            1      0.01%    100.00% # Reads before turning the bus around for writes
system.mem_ctrls1.rdPerTurnAround::total         7642                       # Reads before turning the bus around for writes
system.mem_ctrls1.wrPerTurnAround::samples         7642                       # Writes before turning the bus around for reads
system.mem_ctrls1.wrPerTurnAround::mean      5.615415                       # Writes before turning the bus around for reads
system.mem_ctrls1.wrPerTurnAround::gmean     5.383132                       # Writes before turning the bus around for reads
system.mem_ctrls1.wrPerTurnAround::stdev     2.228907                       # Writes before turning the bus around for reads
system.mem_ctrls1.wrPerTurnAround::4-7           7124     93.22%     93.22% # Writes before turning the bus around for reads
system.mem_ctrls1.wrPerTurnAround::8-11           166      2.17%     95.39% # Writes before turning the bus around for reads
system.mem_ctrls1.wrPerTurnAround::12-15          109      1.43%     96.82% # Writes before turning the bus around for reads
system.mem_ctrls1.wrPerTurnAround::16-19          243      3.18%    100.00% # Writes before turning the bus around for reads
system.mem_ctrls1.wrPerTurnAround::total         7642                       # Writes before turning the bus around for reads
system.mem_ctrls1.totQLat                  3043340377                       # Total ticks spent queuing
system.mem_ctrls1.totMemAccLat             4380215377                       # Total ticks spent from burst creation until serviced by the DRAM
system.mem_ctrls1.totBusLat                 356500000                       # Total ticks spent in databus transfers
system.mem_ctrls1.avgQLat                    42683.60                       # Average queueing delay per DRAM burst
system.mem_ctrls1.avgBusLat                   5000.00                       # Average bus latency per DRAM burst
system.mem_ctrls1.avgMemAccLat               61433.60                       # Average memory access latency per DRAM burst
system.mem_ctrls1.avgRdBW                      117.51                       # Average DRAM read bandwidth in MiByte/s
system.mem_ctrls1.avgWrBW                       70.72                       # Average achieved write bandwidth in MiByte/s
system.mem_ctrls1.avgRdBWSys                   117.53                       # Average system read bandwidth in MiByte/s
system.mem_ctrls1.avgWrBWSys                    70.73                       # Average system write bandwidth in MiByte/s
system.mem_ctrls1.peakBW                     12800.00                       # Theoretical peak bandwidth in MiByte/s
system.mem_ctrls1.busUtil                        1.47                       # Data bus utilization in percentage
system.mem_ctrls1.busUtilRead                    0.92                       # Data bus utilization in percentage for reads
system.mem_ctrls1.busUtilWrite                   0.55                       # Data bus utilization in percentage for writes
system.mem_ctrls1.avgRdQLen                      1.11                       # Average read queue length when enqueuing
system.mem_ctrls1.avgWrQLen                      2.86                       # Average write queue length when enqueuing
system.mem_ctrls1.readRowHits                   55791                       # Number of row buffer hits during reads
system.mem_ctrls1.writeRowHits                  29860                       # Number of row buffer hits during writes
system.mem_ctrls1.readRowHitRate                78.25                       # Row buffer hit rate for reads
system.mem_ctrls1.writeRowHitRate               69.58                       # Row buffer hit rate for writes
system.mem_ctrls1.avgGap                    339946.39                       # Average gap between requests
system.mem_ctrls1.pageHitRate                   74.99                       # Row buffer hit rate, read and write combined
system.mem_ctrls1.memoryStateTime::IDLE   10618009000                       # Time in different power states
system.mem_ctrls1.memoryStateTime::REF     1296620000                       # Time in different power states
system.mem_ctrls1.memoryStateTime::PRE_PDN            0                       # Time in different power states
system.mem_ctrls1.memoryStateTime::ACT    26915673500                       # Time in different power states
system.mem_ctrls1.memoryStateTime::ACT_PDN            0                       # Time in different power states
system.mem_ctrls1.actEnergy::0              112870800                       # Energy for activate commands per rank (pJ)
system.mem_ctrls1.actEnergy::1              103020120                       # Energy for activate commands per rank (pJ)
system.mem_ctrls1.preEnergy::0               61586250                       # Energy for precharge commands per rank (pJ)
system.mem_ctrls1.preEnergy::1               56211375                       # Energy for precharge commands per rank (pJ)
system.mem_ctrls1.readEnergy::0             282750000                       # Energy for read commands per rank (pJ)
system.mem_ctrls1.readEnergy::1             273265200                       # Energy for read commands per rank (pJ)
system.mem_ctrls1.writeEnergy::0            141212160                       # Energy for write commands per rank (pJ)
system.mem_ctrls1.writeEnergy::1            136864080                       # Energy for write commands per rank (pJ)
system.mem_ctrls1.refreshEnergy::0         2536188720                       # Energy for refresh commands per rank (pJ)
system.mem_ctrls1.refreshEnergy::1         2536188720                       # Energy for refresh commands per rank (pJ)
system.mem_ctrls1.actBackEnergy::0        14048695665                       # Energy for active background per rank (pJ)
system.mem_ctrls1.actBackEnergy::1        13370715720                       # Energy for active background per rank (pJ)
system.mem_ctrls1.preBackEnergy::0        10974756000                       # Energy for precharge background per rank (pJ)
system.mem_ctrls1.preBackEnergy::1        11569475250                       # Energy for precharge background per rank (pJ)
system.mem_ctrls1.totalEnergy::0          28158059595                       # Total energy per rank (pJ)
system.mem_ctrls1.totalEnergy::1          28045740465                       # Total energy per rank (pJ)
system.mem_ctrls1.averagePower::0          725.157100                       # Core power per rank (mW)
system.mem_ctrls1.averagePower::1          722.264535                       # Core power per rank (mW)
system.mem_ctrls2.bytes_read::ruby.dir_cntrl2      4566656                       # Number of bytes read from this memory
system.mem_ctrls2.bytes_read::total           4566656                       # Number of bytes read from this memory
system.mem_ctrls2.bytes_written::ruby.dir_cntrl2      2748160                       # Number of bytes written to this memory
system.mem_ctrls2.bytes_written::total        2748160                       # Number of bytes written to this memory
system.mem_ctrls2.num_reads::ruby.dir_cntrl2        71354                       # Number of read requests responded to by this memory
system.mem_ctrls2.num_reads::total              71354                       # Number of read requests responded to by this memory
system.mem_ctrls2.num_writes::ruby.dir_cntrl2        42940                       # Number of write requests responded to by this memory
system.mem_ctrls2.num_writes::total             42940                       # Number of write requests responded to by this memory
system.mem_ctrls2.bw_read::ruby.dir_cntrl2    117594694                       # Total read bandwidth from this memory (bytes/s)
system.mem_ctrls2.bw_read::total            117594694                       # Total read bandwidth from this memory (bytes/s)
system.mem_ctrls2.bw_write::ruby.dir_cntrl2     70767107                       # Write bandwidth from this memory (bytes/s)
system.mem_ctrls2.bw_write::total            70767107                       # Write bandwidth from this memory (bytes/s)
system.mem_ctrls2.bw_total::ruby.dir_cntrl2    188361801                       # Total bandwidth to/from this memory (bytes/s)
system.mem_ctrls2.bw_total::total           188361801                       # Total bandwidth to/from this memory (bytes/s)
system.mem_ctrls2.readReqs                      71354                       # Number of read requests accepted
system.mem_ctrls2.writeReqs                     42940                       # Number of write requests accepted
system.mem_ctrls2.readBursts                    71354                       # Number of DRAM read bursts, including those serviced by the write queue
system.mem_ctrls2.writeBursts                   42940                       # Number of DRAM write bursts, including those merged in the write queue
system.mem_ctrls2.bytesReadDRAM               4565696                       # Total number of bytes read from DRAM
system.mem_ctrls2.bytesReadWrQ                    960                       # Total number of bytes read from write queue
system.mem_ctrls2.bytesWritten                2747968                       # Total number of bytes written to DRAM
system.mem_ctrls2.bytesReadSys                4566656                       # Total read bytes from the system interface side
system.mem_ctrls2.bytesWrittenSys             2748160                       # Total written bytes from the system interface side
system.mem_ctrls2.servicedByWrQ                    15                       # Number of DRAM read bursts serviced by the write queue
system.mem_ctrls2.mergedWrBursts                    0                       # Number of DRAM write bursts merged with an existing one
system.mem_ctrls2.neitherReadNorWriteReqs            0                       # Number of requests that are neither read nor write
system.mem_ctrls2.perBankRdBursts::0             4292                       # Per bank write bursts
system.mem_ctrls2.perBankRdBursts::1             4781                       # Per bank write bursts
system.mem_ctrls2.perBankRdBursts::2             4434                       # Per bank write bursts
system.mem_ctrls2.perBankRdBursts::3             4798                       # Per bank write bursts
system.mem_ctrls2.perBankRdBursts::4             4535                       # Per bank write bursts
system.mem_ctrls2.perBankRdBursts::5             4626                       # Per bank write bursts
system.mem_ctrls2.perBankRdBursts::6             4418                       # Per bank write bursts
system.mem_ctrls2.perBankRdBursts::7             4419                       # Per bank write bursts
system.mem_ctrls2.perBankRdBursts::8             4358                       # Per bank write bursts
system.mem_ctrls2.perBankRdBursts::9             4653                       # Per bank write bursts
system.mem_ctrls2.perBankRdBursts::10            4395                       # Per bank write bursts
system.mem_ctrls2.perBankRdBursts::11            4651                       # Per bank write bursts
system.mem_ctrls2.perBankRdBursts::12            4240                       # Per bank write bursts
system.mem_ctrls2.perBankRdBursts::13            4073                       # Per bank write bursts
system.mem_ctrls2.perBankRdBursts::14            4263                       # Per bank write bursts
system.mem_ctrls2.perBankRdBursts::15            4403                       # Per bank write bursts
system.mem_ctrls2.perBankWrBursts::0             2703                       # Per bank write bursts
system.mem_ctrls2.perBankWrBursts::1             2712                       # Per bank write bursts
system.mem_ctrls2.perBankWrBursts::2             2688                       # Per bank write bursts
system.mem_ctrls2.perBankWrBursts::3             2789                       # Per bank write bursts
system.mem_ctrls2.perBankWrBursts::4             2697                       # Per bank write bursts
system.mem_ctrls2.perBankWrBursts::5             2820                       # Per bank write bursts
system.mem_ctrls2.perBankWrBursts::6             2646                       # Per bank write bursts
system.mem_ctrls2.perBankWrBursts::7             2734                       # Per bank write bursts
system.mem_ctrls2.perBankWrBursts::8             2629                       # Per bank write bursts
system.mem_ctrls2.perBankWrBursts::9             2811                       # Per bank write bursts
system.mem_ctrls2.perBankWrBursts::10            2656                       # Per bank write bursts
system.mem_ctrls2.perBankWrBursts::11            2599                       # Per bank write bursts
system.mem_ctrls2.perBankWrBursts::12            2536                       # Per bank write bursts
system.mem_ctrls2.perBankWrBursts::13            2548                       # Per bank write bursts
system.mem_ctrls2.perBankWrBursts::14            2715                       # Per bank write bursts
system.mem_ctrls2.perBankWrBursts::15            2654                       # Per bank write bursts
system.mem_ctrls2.numRdRetry                      358                       # Number of times read queue was full causing retry
system.mem_ctrls2.numWrRetry                     2205                       # Number of times write queue was full causing retry
system.mem_ctrls2.totGap                  38833336000                       # Total gap between requests
system.mem_ctrls2.readPktSize::0                    0                       # Read request sizes (log2)
system.mem_ctrls2.readPktSize::1                    0                       # Read request sizes (log2)
system.mem_ctrls2.readPktSize::2                    0                       # Read request sizes (log2)
system.mem_ctrls2.readPktSize::3                    0                       # Read request sizes (log2)
system.mem_ctrls2.readPktSize::4                    0                       # Read request sizes (log2)
system.mem_ctrls2.readPktSize::5                    0                       # Read request sizes (log2)
system.mem_ctrls2.readPktSize::6                71354                       # Read request sizes (log2)
system.mem_ctrls2.writePktSize::0                   0                       # Write request sizes (log2)
system.mem_ctrls2.writePktSize::1                   0                       # Write request sizes (log2)
system.mem_ctrls2.writePktSize::2                   0                       # Write request sizes (log2)
system.mem_ctrls2.writePktSize::3                   0                       # Write request sizes (log2)
system.mem_ctrls2.writePktSize::4                   0                       # Write request sizes (log2)
system.mem_ctrls2.writePktSize::5                   0                       # Write request sizes (log2)
system.mem_ctrls2.writePktSize::6               42940                       # Write request sizes (log2)
system.mem_ctrls2.rdQLenPdf::0                  45097                       # What read queue length does an incoming req see
system.mem_ctrls2.rdQLenPdf::1                   3949                       # What read queue length does an incoming req see
system.mem_ctrls2.rdQLenPdf::2                   3396                       # What read queue length does an incoming req see
system.mem_ctrls2.rdQLenPdf::3                   2985                       # What read queue length does an incoming req see
system.mem_ctrls2.rdQLenPdf::4                   2352                       # What read queue length does an incoming req see
system.mem_ctrls2.rdQLenPdf::5                   1940                       # What read queue length does an incoming req see
system.mem_ctrls2.rdQLenPdf::6                   1637                       # What read queue length does an incoming req see
system.mem_ctrls2.rdQLenPdf::7                   1357                       # What read queue length does an incoming req see
system.mem_ctrls2.rdQLenPdf::8                   1149                       # What read queue length does an incoming req see
system.mem_ctrls2.rdQLenPdf::9                    948                       # What read queue length does an incoming req see
system.mem_ctrls2.rdQLenPdf::10                   842                       # What read queue length does an incoming req see
system.mem_ctrls2.rdQLenPdf::11                   723                       # What read queue length does an incoming req see
system.mem_ctrls2.rdQLenPdf::12                   547                       # What read queue length does an incoming req see
system.mem_ctrls2.rdQLenPdf::13                   464                       # What read queue length does an incoming req see
system.mem_ctrls2.rdQLenPdf::14                   407                       # What read queue length does an incoming req see
system.mem_ctrls2.rdQLenPdf::15                   368                       # What read queue length does an incoming req see
system.mem_ctrls2.rdQLenPdf::16                   325                       # What read queue length does an incoming req see
system.mem_ctrls2.rdQLenPdf::17                   291                       # What read queue length does an incoming req see
system.mem_ctrls2.rdQLenPdf::18                   268                       # What read queue length does an incoming req see
system.mem_ctrls2.rdQLenPdf::19                   246                       # What read queue length does an incoming req see
system.mem_ctrls2.rdQLenPdf::20                   209                       # What read queue length does an incoming req see
system.mem_ctrls2.rdQLenPdf::21                   196                       # What read queue length does an incoming req see
system.mem_ctrls2.rdQLenPdf::22                   177                       # What read queue length does an incoming req see
system.mem_ctrls2.rdQLenPdf::23                   165                       # What read queue length does an incoming req see
system.mem_ctrls2.rdQLenPdf::24                   147                       # What read queue length does an incoming req see
system.mem_ctrls2.rdQLenPdf::25                   144                       # What read queue length does an incoming req see
system.mem_ctrls2.rdQLenPdf::26                   124                       # What read queue length does an incoming req see
system.mem_ctrls2.rdQLenPdf::27                   117                       # What read queue length does an incoming req see
system.mem_ctrls2.rdQLenPdf::28                   112                       # What read queue length does an incoming req see
system.mem_ctrls2.rdQLenPdf::29                   110                       # What read queue length does an incoming req see
system.mem_ctrls2.rdQLenPdf::30                    98                       # What read queue length does an incoming req see
system.mem_ctrls2.rdQLenPdf::31                   449                       # What read queue length does an incoming req see
system.mem_ctrls2.wrQLenPdf::0                   7436                       # What write queue length does an incoming req see
system.mem_ctrls2.wrQLenPdf::1                   7621                       # What write queue length does an incoming req see
system.mem_ctrls2.wrQLenPdf::2                   7760                       # What write queue length does an incoming req see
system.mem_ctrls2.wrQLenPdf::3                   7918                       # What write queue length does an incoming req see
system.mem_ctrls2.wrQLenPdf::4                   8003                       # What write queue length does an incoming req see
system.mem_ctrls2.wrQLenPdf::5                    724                       # What write queue length does an incoming req see
system.mem_ctrls2.wrQLenPdf::6                    628                       # What write queue length does an incoming req see
system.mem_ctrls2.wrQLenPdf::7                   2850                       # What write queue length does an incoming req see
system.mem_ctrls2.bytesPerActivate::samples        28623                       # Bytes accessed per row activation
system.mem_ctrls2.bytesPerActivate::mean   255.501380                       # Bytes accessed per row activation
system.mem_ctrls2.bytesPerActivate::gmean   176.105958                       # Bytes accessed per row activation
system.mem_ctrls2.bytesPerActivate::stdev   240.321890                       # Bytes accessed per row activation
system.mem_ctrls2.bytesPerActivate::0-127         9313     32.54%     32.54% # Bytes accessed per row activation
system.mem_ctrls2.bytesPerActivate::128-255         6574     22.97%     55.50% # Bytes accessed per row activation
system.mem_ctrls2.bytesPerActivate::256-383         8136     28.42%     83.93% # Bytes accessed per row activation
system.mem_ctrls2.bytesPerActivate::384-511         1155      4.04%     87.96% # Bytes accessed per row activation
system.mem_ctrls2.bytesPerActivate::512-639          810      2.83%     90.79% # Bytes accessed per row activation
system.mem_ctrls2.bytesPerActivate::640-767          594      2.08%     92.87% # Bytes accessed per row activation
system.mem_ctrls2.bytesPerActivate::768-895          441      1.54%     94.41% # Bytes accessed per row activation
system.mem_ctrls2.bytesPerActivate::896-1023          422      1.47%     95.88% # Bytes accessed per row activation
system.mem_ctrls2.bytesPerActivate::1024-1151         1178      4.12%    100.00% # Bytes accessed per row activation
system.mem_ctrls2.bytesPerActivate::total        28623                       # Bytes accessed per row activation
system.mem_ctrls2.rdPerTurnAround::samples         7660                       # Reads before turning the bus around for writes
system.mem_ctrls2.rdPerTurnAround::mean      9.308877                       # Reads before turning the bus around for writes
system.mem_ctrls2.rdPerTurnAround::stdev    37.476920                       # Reads before turning the bus around for writes
system.mem_ctrls2.rdPerTurnAround::0-127         7655     99.93%     99.93% # Reads before turning the bus around for writes
system.mem_ctrls2.rdPerTurnAround::128-255            3      0.04%     99.97% # Reads before turning the bus around for writes
system.mem_ctrls2.rdPerTurnAround::1152-1279            1      0.01%     99.99% # Reads before turning the bus around for writes
system.mem_ctrls2.rdPerTurnAround::2816-2943            1      0.01%    100.00% # Reads before turning the bus around for writes
system.mem_ctrls2.rdPerTurnAround::total         7660                       # Reads before turning the bus around for writes
system.mem_ctrls2.wrPerTurnAround::samples         7660                       # Writes before turning the bus around for reads
system.mem_ctrls2.wrPerTurnAround::mean      5.605352                       # Writes before turning the bus around for reads
system.mem_ctrls2.wrPerTurnAround::gmean     5.374948                       # Writes before turning the bus around for reads
system.mem_ctrls2.wrPerTurnAround::stdev     2.220863                       # Writes before turning the bus around for reads
system.mem_ctrls2.wrPerTurnAround::4-7           7150     93.34%     93.34% # Writes before turning the bus around for reads
system.mem_ctrls2.wrPerTurnAround::8-11           158      2.06%     95.40% # Writes before turning the bus around for reads
system.mem_ctrls2.wrPerTurnAround::12-15          107      1.40%     96.80% # Writes before turning the bus around for reads
system.mem_ctrls2.wrPerTurnAround::16-19          245      3.20%    100.00% # Writes before turning the bus around for reads
system.mem_ctrls2.wrPerTurnAround::total         7660                       # Writes before turning the bus around for reads
system.mem_ctrls2.totQLat                  3005551429                       # Total ticks spent queuing
system.mem_ctrls2.totMemAccLat             4343157679                       # Total ticks spent from burst creation until serviced by the DRAM
system.mem_ctrls2.totBusLat                 356695000                       # Total ticks spent in databus transfers
system.mem_ctrls2.avgQLat                    42130.55                       # Average queueing delay per DRAM burst
system.mem_ctrls2.avgBusLat                   5000.00                       # Average bus latency per DRAM burst
system.mem_ctrls2.avgMemAccLat               60880.55                       # Average memory access latency per DRAM burst
system.mem_ctrls2.avgRdBW                      117.57                       # Average DRAM read bandwidth in MiByte/s
system.mem_ctrls2.avgWrBW                       70.76                       # Average achieved write bandwidth in MiByte/s
system.mem_ctrls2.avgRdBWSys                   117.59                       # Average system read bandwidth in MiByte/s
system.mem_ctrls2.avgWrBWSys                    70.77                       # Average system write bandwidth in MiByte/s
system.mem_ctrls2.peakBW                     12800.00                       # Theoretical peak bandwidth in MiByte/s
system.mem_ctrls2.busUtil                        1.47                       # Data bus utilization in percentage
system.mem_ctrls2.busUtilRead                    0.92                       # Data bus utilization in percentage for reads
system.mem_ctrls2.busUtilWrite                   0.55                       # Data bus utilization in percentage for writes
system.mem_ctrls2.avgRdQLen                      1.10                       # Average read queue length when enqueuing
system.mem_ctrls2.avgWrQLen                      2.88                       # Average write queue length when enqueuing
system.mem_ctrls2.readRowHits                   55750                       # Number of row buffer hits during reads
system.mem_ctrls2.writeRowHits                  29900                       # Number of row buffer hits during writes
system.mem_ctrls2.readRowHitRate                78.15                       # Row buffer hit rate for reads
system.mem_ctrls2.writeRowHitRate               69.63                       # Row buffer hit rate for writes
system.mem_ctrls2.avgGap                    339767.06                       # Average gap between requests
system.mem_ctrls2.pageHitRate                   74.95                       # Row buffer hit rate, read and write combined
system.mem_ctrls2.memoryStateTime::IDLE   10523352000                       # Time in different power states
system.mem_ctrls2.memoryStateTime::REF     1296620000                       # Time in different power states
system.mem_ctrls2.memoryStateTime::PRE_PDN            0                       # Time in different power states
system.mem_ctrls2.memoryStateTime::ACT    27010433000                       # Time in different power states
system.mem_ctrls2.memoryStateTime::ACT_PDN            0                       # Time in different power states
system.mem_ctrls2.actEnergy::0              113158080                       # Energy for activate commands per rank (pJ)
system.mem_ctrls2.actEnergy::1              103216680                       # Energy for activate commands per rank (pJ)
system.mem_ctrls2.preEnergy::0               61743000                       # Energy for precharge commands per rank (pJ)
system.mem_ctrls2.preEnergy::1               56318625                       # Energy for precharge commands per rank (pJ)
system.mem_ctrls2.readEnergy::0             283132200                       # Energy for read commands per rank (pJ)
system.mem_ctrls2.readEnergy::1             273218400                       # Energy for read commands per rank (pJ)
system.mem_ctrls2.writeEnergy::0            141192720                       # Energy for write commands per rank (pJ)
system.mem_ctrls2.writeEnergy::1            137039040                       # Energy for write commands per rank (pJ)
system.mem_ctrls2.refreshEnergy::0         2536188720                       # Energy for refresh commands per rank (pJ)
system.mem_ctrls2.refreshEnergy::1         2536188720                       # Energy for refresh commands per rank (pJ)
system.mem_ctrls2.actBackEnergy::0        14091948405                       # Energy for active background per rank (pJ)
system.mem_ctrls2.actBackEnergy::1        13445661600                       # Energy for active background per rank (pJ)
system.mem_ctrls2.preBackEnergy::0        10936815000                       # Energy for precharge background per rank (pJ)
system.mem_ctrls2.preBackEnergy::1        11503733250                       # Energy for precharge background per rank (pJ)
system.mem_ctrls2.totalEnergy::0          28164178125                       # Total energy per rank (pJ)
system.mem_ctrls2.totalEnergy::1          28055376315                       # Total energy per rank (pJ)
system.mem_ctrls2.averagePower::0          725.314671                       # Core power per rank (mW)
system.mem_ctrls2.averagePower::1          722.512688                       # Core power per rank (mW)
system.mem_ctrls3.bytes_read::ruby.dir_cntrl3      4548544                       # Number of bytes read from this memory
system.mem_ctrls3.bytes_read::total           4548544                       # Number of bytes read from this memory
system.mem_ctrls3.bytes_written::ruby.dir_cntrl3      2743616                       # Number of bytes written to this memory
system.mem_ctrls3.bytes_written::total        2743616                       # Number of bytes written to this memory
system.mem_ctrls3.num_reads::ruby.dir_cntrl3        71071                       # Number of read requests responded to by this memory
system.mem_ctrls3.num_reads::total              71071                       # Number of read requests responded to by this memory
system.mem_ctrls3.num_writes::ruby.dir_cntrl3        42869                       # Number of write requests responded to by this memory
system.mem_ctrls3.num_writes::total             42869                       # Number of write requests responded to by this memory
system.mem_ctrls3.bw_read::ruby.dir_cntrl3    117128297                       # Total read bandwidth from this memory (bytes/s)
system.mem_ctrls3.bw_read::total            117128297                       # Total read bandwidth from this memory (bytes/s)
system.mem_ctrls3.bw_write::ruby.dir_cntrl3     70650096                       # Write bandwidth from this memory (bytes/s)
system.mem_ctrls3.bw_write::total            70650096                       # Write bandwidth from this memory (bytes/s)
system.mem_ctrls3.bw_total::ruby.dir_cntrl3    187778393                       # Total bandwidth to/from this memory (bytes/s)
system.mem_ctrls3.bw_total::total           187778393                       # Total bandwidth to/from this memory (bytes/s)
system.mem_ctrls3.readReqs                      71072                       # Number of read requests accepted
system.mem_ctrls3.writeReqs                     42869                       # Number of write requests accepted
system.mem_ctrls3.readBursts                    71072                       # Number of DRAM read bursts, including those serviced by the write queue
system.mem_ctrls3.writeBursts                   42869                       # Number of DRAM write bursts, including those merged in the write queue
system.mem_ctrls3.bytesReadDRAM               4548160                       # Total number of bytes read from DRAM
system.mem_ctrls3.bytesReadWrQ                    448                       # Total number of bytes read from write queue
system.mem_ctrls3.bytesWritten                2743360                       # Total number of bytes written to DRAM
system.mem_ctrls3.bytesReadSys                4548608                       # Total read bytes from the system interface side
system.mem_ctrls3.bytesWrittenSys             2743616                       # Total written bytes from the system interface side
system.mem_ctrls3.servicedByWrQ                     7                       # Number of DRAM read bursts serviced by the write queue
system.mem_ctrls3.mergedWrBursts                    0                       # Number of DRAM write bursts merged with an existing one
system.mem_ctrls3.neitherReadNorWriteReqs            0                       # Number of requests that are neither read nor write
system.mem_ctrls3.perBankRdBursts::0             4281                       # Per bank write bursts
system.mem_ctrls3.perBankRdBursts::1             4737                       # Per bank write bursts
system.mem_ctrls3.perBankRdBursts::2             4407                       # Per bank write bursts
system.mem_ctrls3.perBankRdBursts::3             4759                       # Per bank write bursts
system.mem_ctrls3.perBankRdBursts::4             4487                       # Per bank write bursts
system.mem_ctrls3.perBankRdBursts::5             4595                       # Per bank write bursts
system.mem_ctrls3.perBankRdBursts::6             4405                       # Per bank write bursts
system.mem_ctrls3.perBankRdBursts::7             4417                       # Per bank write bursts
system.mem_ctrls3.perBankRdBursts::8             4365                       # Per bank write bursts
system.mem_ctrls3.perBankRdBursts::9             4633                       # Per bank write bursts
system.mem_ctrls3.perBankRdBursts::10            4406                       # Per bank write bursts
system.mem_ctrls3.perBankRdBursts::11            4620                       # Per bank write bursts
system.mem_ctrls3.perBankRdBursts::12            4224                       # Per bank write bursts
system.mem_ctrls3.perBankRdBursts::13            4052                       # Per bank write bursts
system.mem_ctrls3.perBankRdBursts::14            4276                       # Per bank write bursts
system.mem_ctrls3.perBankRdBursts::15            4401                       # Per bank write bursts
system.mem_ctrls3.perBankWrBursts::0             2708                       # Per bank write bursts
system.mem_ctrls3.perBankWrBursts::1             2700                       # Per bank write bursts
system.mem_ctrls3.perBankWrBursts::2             2689                       # Per bank write bursts
system.mem_ctrls3.perBankWrBursts::3             2773                       # Per bank write bursts
system.mem_ctrls3.perBankWrBursts::4             2690                       # Per bank write bursts
system.mem_ctrls3.perBankWrBursts::5             2815                       # Per bank write bursts
system.mem_ctrls3.perBankWrBursts::6             2639                       # Per bank write bursts
system.mem_ctrls3.perBankWrBursts::7             2726                       # Per bank write bursts
system.mem_ctrls3.perBankWrBursts::8             2625                       # Per bank write bursts
system.mem_ctrls3.perBankWrBursts::9             2804                       # Per bank write bursts
system.mem_ctrls3.perBankWrBursts::10            2651                       # Per bank write bursts
system.mem_ctrls3.perBankWrBursts::11            2605                       # Per bank write bursts
system.mem_ctrls3.perBankWrBursts::12            2530                       # Per bank write bursts
system.mem_ctrls3.perBankWrBursts::13            2555                       # Per bank write bursts
system.mem_ctrls3.perBankWrBursts::14            2707                       # Per bank write bursts
system.mem_ctrls3.perBankWrBursts::15            2648                       # Per bank write bursts
system.mem_ctrls3.numRdRetry                      495                       # Number of times read queue was full causing retry
system.mem_ctrls3.numWrRetry                     2482                       # Number of times write queue was full causing retry
system.mem_ctrls3.totGap                  38833118500                       # Total gap between requests
system.mem_ctrls3.readPktSize::0                    0                       # Read request sizes (log2)
system.mem_ctrls3.readPktSize::1                    0                       # Read request sizes (log2)
system.mem_ctrls3.readPktSize::2                    0                       # Read request sizes (log2)
system.mem_ctrls3.readPktSize::3                    0                       # Read request sizes (log2)
system.mem_ctrls3.readPktSize::4                    0                       # Read request sizes (log2)
system.mem_ctrls3.readPktSize::5                    0                       # Read request sizes (log2)
system.mem_ctrls3.readPktSize::6                71072                       # Read request sizes (log2)
system.mem_ctrls3.writePktSize::0                   0                       # Write request sizes (log2)
system.mem_ctrls3.writePktSize::1                   0                       # Write request sizes (log2)
system.mem_ctrls3.writePktSize::2                   0                       # Write request sizes (log2)
system.mem_ctrls3.writePktSize::3                   0                       # Write request sizes (log2)
system.mem_ctrls3.writePktSize::4                   0                       # Write request sizes (log2)
system.mem_ctrls3.writePktSize::5                   0                       # Write request sizes (log2)
system.mem_ctrls3.writePktSize::6               42869                       # Write request sizes (log2)
system.mem_ctrls3.rdQLenPdf::0                  44605                       # What read queue length does an incoming req see
system.mem_ctrls3.rdQLenPdf::1                   3475                       # What read queue length does an incoming req see
system.mem_ctrls3.rdQLenPdf::2                   3042                       # What read queue length does an incoming req see
system.mem_ctrls3.rdQLenPdf::3                   2722                       # What read queue length does an incoming req see
system.mem_ctrls3.rdQLenPdf::4                   2373                       # What read queue length does an incoming req see
system.mem_ctrls3.rdQLenPdf::5                   1910                       # What read queue length does an incoming req see
system.mem_ctrls3.rdQLenPdf::6                   1647                       # What read queue length does an incoming req see
system.mem_ctrls3.rdQLenPdf::7                   1405                       # What read queue length does an incoming req see
system.mem_ctrls3.rdQLenPdf::8                   1175                       # What read queue length does an incoming req see
system.mem_ctrls3.rdQLenPdf::9                   1006                       # What read queue length does an incoming req see
system.mem_ctrls3.rdQLenPdf::10                   946                       # What read queue length does an incoming req see
system.mem_ctrls3.rdQLenPdf::11                   791                       # What read queue length does an incoming req see
system.mem_ctrls3.rdQLenPdf::12                   689                       # What read queue length does an incoming req see
system.mem_ctrls3.rdQLenPdf::13                   594                       # What read queue length does an incoming req see
system.mem_ctrls3.rdQLenPdf::14                   506                       # What read queue length does an incoming req see
system.mem_ctrls3.rdQLenPdf::15                   455                       # What read queue length does an incoming req see
system.mem_ctrls3.rdQLenPdf::16                   397                       # What read queue length does an incoming req see
system.mem_ctrls3.rdQLenPdf::17                   322                       # What read queue length does an incoming req see
system.mem_ctrls3.rdQLenPdf::18                   289                       # What read queue length does an incoming req see
system.mem_ctrls3.rdQLenPdf::19                   250                       # What read queue length does an incoming req see
system.mem_ctrls3.rdQLenPdf::20                   241                       # What read queue length does an incoming req see
system.mem_ctrls3.rdQLenPdf::21                   200                       # What read queue length does an incoming req see
system.mem_ctrls3.rdQLenPdf::22                   196                       # What read queue length does an incoming req see
system.mem_ctrls3.rdQLenPdf::23                   190                       # What read queue length does an incoming req see
system.mem_ctrls3.rdQLenPdf::24                   180                       # What read queue length does an incoming req see
[...]
system.ruby.L2Cache_Controller.IM.Mem_Data::total       150600                      
system.ruby.L2Cache_Controller.SS_MB.Exclusive_Unblock |           3      6.82%      6.82% |           6     13.64%     20.45% |           3      6.82%     27.27% |           4      9.09%     36.36% |           0      0.00%     36.36% |           0      0.00%     36.36% |           0      0.00%     36.36% |           0      0.00%     36.36% |           0      0.00%     36.36% |           0      0.00%     36.36% |           0      0.00%     36.36% |           0      0.00%     36.36% |           3      6.82%     43.18% |           0      0.00%     43.18% |           4      9.09%     52.27% |           0      0.00%     52.27% |           1      2.27%     54.55% |           0      0.00%     54.55% |          11     25.00%     79.55% |           2      4.55%     84.09% |           0      0.00%     84.09% |           1      2.27%     86.36% |           0      0.00%     86.36% |           1      2.27%     88.64% |           1      2.27%     90.91% |           0      0.00%     90.91% |           1      2.27%     93.18% |           2      4.55%     97.73% |           1      2.27%    100.00% |           0      0.00%    100.00% |           0      0.00%    100.00% |           0      0.00%    100.00%
system.ruby.L2Cache_Controller.SS_MB.Exclusive_Unblock::total           44                      
system.ruby.L2Cache_Controller.MT_MB.L1_GETS |           2     28.57%     28.57% |           0      0.00%     28.57% |           0      0.00%     28.57% |           0      0.00%     28.57% |           0      0.00%     28.57% |           0      0.00%     28.57% |           0      0.00%     28.57% |           0      0.00%     28.57% |           0      0.00%     28.57% |           0      0.00%     28.57% |           0      0.00%     28.57% |           0      0.00%     28.57% |           0      0.00%     28.57% |           0      0.00%     28.57% |           0      0.00%     28.57% |           0      0.00%     28.57% |           5     71.43%    100.00% |           0      0.00%    100.00% |           0      0.00%    100.00% |           0      0.00%    100.00% |           0      0.00%    100.00% |           0      0.00%    100.00% |           0      0.00%    100.00% |           0      0.00%    100.00% |           0      0.00%    100.00% |           0      0.00%    100.00% |           0      0.00%    100.00% |           0      0.00%    100.00% |           0      0.00%    100.00% |           0      0.00%    100.00% |           0      0.00%    100.00% |           0      0.00%    100.00%
system.ruby.L2Cache_Controller.MT_MB.L1_GETS::total            7                      
system.ruby.L2Cache_Controller.MT_MB.L1_GETX |           1    100.00%    100.00% |           0      0.00%    100.00% |           0      0.00%    100.00% |           0      0.00%    100.00% |           0      0.00%    100.00% |           0      0.00%    100.00% |           0      0.00%    100.00% |           0      0.00%    100.00% |           0      0.00%    100.00% |           0      0.00%    100.00% |           0      0.00%    100.00% |           0      0.00%    100.00% |           0      0.00%    100.00% |           0      0.00%    100.00% |           0      0.00%    100.00% |           0      0.00%    100.00% |           0      0.00%    100.00% |           0      0.00%    100.00% |           0      0.00%    100.00% |           0      0.00%    100.00% |           0      0.00%    100.00% |           0      0.00%    100.00% |           0      0.00%    100.00% |           0      0.00%    100.00% |           0      0.00%    100.00% |           0      0.00%    100.00% |           0      0.00%    100.00% |           0      0.00%    100.00% |           0      0.00%    100.00% |           0      0.00%    100.00% |           0      0.00%    100.00% |           0      0.00%    100.00%
system.ruby.L2Cache_Controller.MT_MB.L1_GETX::total            1                      
system.ruby.L2Cache_Controller.MT_MB.Exclusive_Unblock |       60415     12.23%     12.23% |       15538      3.15%     15.38% |       12747      2.58%     17.96% |       14800      3.00%     20.96% |       13335      2.70%     23.66% |       12717      2.57%     26.23% |       12241      2.48%     28.71% |       12902      2.61%     31.32% |       13096      2.65%     33.97% |       12757      2.58%     36.56% |       15511      3.14%     39.70% |       15760      3.19%     42.89% |       14128      2.86%     45.75% |       13215      2.68%     48.42% |       11999      2.43%     50.85% |       12462      2.52%     53.38% |       13974      2.83%     56.20% |       12805      2.59%     58.80% |       13227      2.68%     61.48% |       14224      2.88%     64.36% |       14902      3.02%     67.37% |       15878      3.21%     70.59% |       13721      2.78%     73.37% |       13754      2.78%     76.15% |       13836      2.80%     78.95% |       13398      2.71%     81.66% |       13251      2.68%     84.35% |       12958      2.62%     86.97% |       15563      3.15%     90.12% |       13986      2.83%     92.95% |       16358      3.31%     96.27% |       18447      3.73%    100.00%
system.ruby.L2Cache_Controller.MT_MB.Exclusive_Unblock::total       493905                      
system.ruby.L2Cache_Controller.MT_IIB.L1_PUTX |           3     75.00%     75.00% |           0      0.00%     75.00% |           0      0.00%     75.00% |           0      0.00%     75.00% |           0      0.00%     75.00% |           0      0.00%     75.00% |           0      0.00%     75.00% |           0      0.00%     75.00% |           0      0.00%     75.00% |           0      0.00%     75.00% |           0      0.00%     75.00% |           0      0.00%     75.00% |           0      0.00%     75.00% |           0      0.00%     75.00% |           0      0.00%     75.00% |           0      0.00%     75.00% |           1     25.00%    100.00% |           0      0.00%    100.00% |           0      0.00%    100.00% |           0      0.00%    100.00% |           0      0.00%    100.00% |           0      0.00%    100.00% |           0      0.00%    100.00% |           0      0.00%    100.00% |           0      0.00%    100.00% |           0      0.00%    100.00% |           0      0.00%    100.00% |           0      0.00%    100.00% |           0      0.00%    100.00% |           0      0.00%    100.00% |           0      0.00%    100.00% |           0      0.00%    100.00%
system.ruby.L2Cache_Controller.MT_IIB.L1_PUTX::total            4                      
system.ruby.L2Cache_Controller.MT_IIB.WB_Data |           0      0.00%      0.00% |           1     20.00%     20.00% |           1     20.00%     40.00% |           1     20.00%     60.00% |           0      0.00%     60.00% |           0      0.00%     60.00% |           1     20.00%     80.00% |           0      0.00%     80.00% |           0      0.00%     80.00% |           1     20.00%    100.00% |           0      0.00%    100.00% |           0      0.00%    100.00% |           0      0.00%    100.00% |           0      0.00%    100.00% |           0      0.00%    100.00% |           0      0.00%    100.00% |           0      0.00%    100.00% |           0      0.00%    100.00% |           0      0.00%    100.00% |           0      0.00%    100.00% |           0      0.00%    100.00% |           0      0.00%    100.00% |           0      0.00%    100.00% |           0      0.00%    100.00% |           0      0.00%    100.00% |           0      0.00%    100.00% |           0      0.00%    100.00% |           0      0.00%    100.00% |           0      0.00%    100.00% |           0      0.00%    100.00% |           0      0.00%    100.00% |           0      0.00%    100.00%
system.ruby.L2Cache_Controller.MT_IIB.WB_Data::total            5                      
system.ruby.L2Cache_Controller.MT_IIB.WB_Data_clean |        2975     50.81%     50.81% |           0      0.00%     50.81% |           0      0.00%     50.81% |           0      0.00%     50.81% |           0      0.00%     50.81% |           0      0.00%     50.81% |           0      0.00%     50.81% |           0      0.00%     50.81% |           0      0.00%     50.81% |           0      0.00%     50.81% |           0      0.00%     50.81% |           0      0.00%     50.81% |           0      0.00%     50.81% |           0      0.00%     50.81% |           0      0.00%     50.81% |           0      0.00%     50.81% |        2880     49.19%    100.00% |           0      0.00%    100.00% |           0      0.00%    100.00% |           0      0.00%    100.00% |           0      0.00%    100.00% |           0      0.00%    100.00% |           0      0.00%    100.00% |           0      0.00%    100.00% |           0      0.00%    100.00% |           0      0.00%    100.00% |           0      0.00%    100.00% |           0      0.00%    100.00% |           0      0.00%    100.00% |           0      0.00%    100.00% |           0      0.00%    100.00% |           0      0.00%    100.00%
system.ruby.L2Cache_Controller.MT_IIB.WB_Data_clean::total         5855                      
system.ruby.L2Cache_Controller.MT_IIB.Unblock |          50     21.01%     21.01% |           0      0.00%     21.01% |           0      0.00%     21.01% |           0      0.00%     21.01% |           0      0.00%     21.01% |           0      0.00%     21.01% |           0      0.00%     21.01% |           0      0.00%     21.01% |           0      0.00%     21.01% |           0      0.00%     21.01% |           0      0.00%     21.01% |           0      0.00%     21.01% |           0      0.00%     21.01% |           0      0.00%     21.01% |           0      0.00%     21.01% |           0      0.00%     21.01% |         188     78.99%    100.00% |           0      0.00%    100.00% |           0      0.00%    100.00% |           0      0.00%    100.00% |           0      0.00%    100.00% |           0      0.00%    100.00% |           0      0.00%    100.00% |           0      0.00%    100.00% |           0      0.00%    100.00% |           0      0.00%    100.00% |           0      0.00%    100.00% |           0      0.00%    100.00% |           0      0.00%    100.00% |           0      0.00%    100.00% |           0      0.00%    100.00% |           0      0.00%    100.00%
system.ruby.L2Cache_Controller.MT_IIB.Unblock::total          238                      
system.ruby.L2Cache_Controller.MT_IB.WB_Data_clean |          50     21.01%     21.01% |           0      0.00%     21.01% |           0      0.00%     21.01% |           0      0.00%     21.01% |           0      0.00%     21.01% |           0      0.00%     21.01% |           0      0.00%     21.01% |           0      0.00%     21.01% |           0      0.00%     21.01% |           0      0.00%     21.01% |           0      0.00%     21.01% |           0      0.00%     21.01% |           0      0.00%     21.01% |           0      0.00%     21.01% |           0      0.00%     21.01% |           0      0.00%     21.01% |         188     78.99%    100.00% |           0      0.00%    100.00% |           0      0.00%    100.00% |           0      0.00%    100.00% |           0      0.00%    100.00% |           0      0.00%    100.00% |           0      0.00%    100.00% |           0      0.00%    100.00% |           0      0.00%    100.00% |           0      0.00%    100.00% |           0      0.00%    100.00% |           0      0.00%    100.00% |           0      0.00%    100.00% |           0      0.00%    100.00% |           0      0.00%    100.00% |           0      0.00%    100.00%
system.ruby.L2Cache_Controller.MT_IB.WB_Data_clean::total          238                      
system.ruby.L2Cache_Controller.MT_SB.L1_PUTX |           1    100.00%    100.00% |           0      0.00%    100.00% |           0      0.00%    100.00% |           0      0.00%    100.00% |           0      0.00%    100.00% |           0      0.00%    100.00% |           0      0.00%    100.00% |           0      0.00%    100.00% |           0      0.00%    100.00% |           0      0.00%    100.00% |           0      0.00%    100.00% |           0      0.00%    100.00% |           0      0.00%    100.00% |           0      0.00%    100.00% |           0      0.00%    100.00% |           0      0.00%    100.00% |           0      0.00%    100.00% |           0      0.00%    100.00% |           0      0.00%    100.00% |           0      0.00%    100.00% |           0      0.00%    100.00% |           0      0.00%    100.00% |           0      0.00%    100.00% |           0      0.00%    100.00% |           0      0.00%    100.00% |           0      0.00%    100.00% |           0      0.00%    100.00% |           0      0.00%    100.00% |           0      0.00%    100.00% |           0      0.00%    100.00% |           0      0.00%    100.00% |           0      0.00%    100.00%
system.ruby.L2Cache_Controller.MT_SB.L1_PUTX::total            1                      
system.ruby.L2Cache_Controller.MT_SB.Unblock |        2975     50.77%     50.77% |           1      0.02%     50.78% |           1      0.02%     50.80% |           1      0.02%     50.82% |           0      0.00%     50.82% |           0      0.00%     50.82% |           1      0.02%     50.84% |           0      0.00%     50.84% |           0      0.00%     50.84% |           1      0.02%     50.85% |           0      0.00%     50.85% |           0      0.00%     50.85% |           0      0.00%     50.85% |           0      0.00%     50.85% |           0      0.00%     50.85% |           0      0.00%     50.85% |        2880     49.15%    100.00% |           0      0.00%    100.00% |           0      0.00%    100.00% |           0      0.00%    100.00% |           0      0.00%    100.00% |           0      0.00%    100.00% |           0      0.00%    100.00% |           0      0.00%    100.00% |           0      0.00%    100.00% |           0      0.00%    100.00% |           0      0.00%    100.00% |           0      0.00%    100.00% |           0      0.00%    100.00% |           0      0.00%    100.00% |           0      0.00%    100.00% |           0      0.00%    100.00%
system.ruby.L2Cache_Controller.MT_SB.Unblock::total         5860                      
system.ruby.SimicsNetworkPortInterface_Controller.MessageSend |       32233     14.36%     14.36% |      112267     50.00%     64.36% |        9601      4.28%     68.63% |        9546      4.25%     72.88% |       10596      4.72%     77.60% |        9796      4.36%     81.96% |       10331      4.60%     86.57% |       10349      4.61%     91.18% |        9767      4.35%     95.52% |       10048      4.48%    100.00% |           0      0.00%    100.00% |           0      0.00%    100.00% |           0      0.00%    100.00% |           0      0.00%    100.00% |           0      0.00%    100.00% |           0      0.00%    100.00% |           0      0.00%    100.00% |           0      0.00%    100.00% |           0      0.00%    100.00% |           0      0.00%    100.00% |           0      0.00%    100.00% |           0      0.00%    100.00% |           0      0.00%    100.00% |           0      0.00%    100.00% |           0      0.00%    100.00% |           0      0.00%    100.00% |           0      0.00%    100.00% |           0      0.00%    100.00% |           0      0.00%    100.00% |           0      0.00%    100.00% |           0      0.00%    100.00% |           0      0.00%    100.00%
system.ruby.SimicsNetworkPortInterface_Controller.MessageSend::total       224534                      
system.ruby.SimicsNetworkPortInterface_Controller.MessageRecv |       32233     14.36%     14.36% |      112267     50.00%     64.36% |        9601      4.28%     68.63% |        9546      4.25%     72.88% |       10596      4.72%     77.60% |        9796      4.36%     81.96% |       10331      4.60%     86.57% |       10349      4.61%     91.18% |        9767      4.35%     95.52% |       10048      4.48%    100.00% |           0      0.00%    100.00% |           0      0.00%    100.00% |           0      0.00%    100.00% |           0      0.00%    100.00% |           0      0.00%    100.00% |           0      0.00%    100.00% |           0      0.00%    100.00% |           0      0.00%    100.00% |           0      0.00%    100.00% |           0      0.00%    100.00% |           0      0.00%    100.00% |           0      0.00%    100.00% |           0      0.00%    100.00% |           0      0.00%    100.00% |           0      0.00%    100.00% |           0      0.00%    100.00% |           0      0.00%    100.00% |           0      0.00%    100.00% |           0      0.00%    100.00% |           0      0.00%    100.00% |           0      0.00%    100.00% |           0      0.00%    100.00%
system.ruby.SimicsNetworkPortInterface_Controller.MessageRecv::total       224534                      
system.ruby.SimicsNetworkPortInterface_Controller.A.MessageSend |       32233     14.36%     14.36% |      112267     50.00%     64.36% |        9601      4.28%     68.63% |        9546      4.25%     72.88% |       10596      4.72%     77.60% |        9796      4.36%     81.96% |       10331      4.60%     86.57% |       10349      4.61%     91.18% |        9767      4.35%     95.52% |       10048      4.48%    100.00% |           0      0.00%    100.00% |           0      0.00%    100.00% |           0      0.00%    100.00% |           0      0.00%    100.00% |           0      0.00%    100.00% |           0      0.00%    100.00% |           0      0.00%    100.00% |           0      0.00%    100.00% |           0      0.00%    100.00% |           0      0.00%    100.00% |           0      0.00%    100.00% |           0      0.00%    100.00% |           0      0.00%    100.00% |           0      0.00%    100.00% |           0      0.00%    100.00% |           0      0.00%    100.00% |           0      0.00%    100.00% |           0      0.00%    100.00% |           0      0.00%    100.00% |           0      0.00%    100.00% |           0      0.00%    100.00% |           0      0.00%    100.00%
system.ruby.SimicsNetworkPortInterface_Controller.A.MessageSend::total       224534                      
system.ruby.SimicsNetworkPortInterface_Controller.A.MessageRecv |       32233     14.36%     14.36% |      112267     50.00%     64.36% |        9601      4.28%     68.63% |        9546      4.25%     72.88% |       10596      4.72%     77.60% |        9796      4.36%     81.96% |       10331      4.60%     86.57% |       10349      4.61%     91.18% |        9767      4.35%     95.52% |       10048      4.48%    100.00% |           0      0.00%    100.00% |           0      0.00%    100.00% |           0      0.00%    100.00% |           0      0.00%    100.00% |           0      0.00%    100.00% |           0      0.00%    100.00% |           0      0.00%    100.00% |           0      0.00%    100.00% |           0      0.00%    100.00% |           0      0.00%    100.00% |           0      0.00%    100.00% |           0      0.00%    100.00% |           0      0.00%    100.00% |           0      0.00%    100.00% |           0      0.00%    100.00% |           0      0.00%    100.00% |           0      0.00%    100.00% |           0      0.00%    100.00% |           0      0.00%    100.00% |           0      0.00%    100.00% |           0      0.00%    100.00% |           0      0.00%    100.00%
system.ruby.SimicsNetworkPortInterface_Controller.A.MessageRecv::total       224534                      
system.switch_cpus.kern.inst.arm                    0                       # number of arm instructions executed
system.switch_cpus.kern.inst.quiesce                0                       # number of quiesce instructions executed

---------- End Simulation Statistics   ----------
