
---------- Begin Simulation Statistics ----------
sim_seconds                                  0.056753                       # Number of seconds simulated
sim_ticks                                 56753179000                       # Number of ticks simulated
final_tick                               5232921257500                       # Number of ticks from beginning of simulation (restored from checkpoints and never reset)
sim_freq                                 1000000000000                       # Frequency of simulated ticks
host_inst_rate                                  30176                       # Simulator instruction rate (inst/s)
host_op_rate                                    53513                       # Simulator op (including micro ops) rate (op/s)
host_tick_rate                               75647417                       # Simulator tick rate (ticks/s)
host_mem_usage                                3644132                       # Number of bytes of host memory used
host_seconds                                   750.23                       # Real time elapsed on the host
sim_insts                                    22639215                       # Number of instructions simulated
sim_ops                                      40147046                       # Number of ops (including micro ops) simulated
system.voltage_domain.voltage                       1                       # Voltage in Volts
system.clk_domain.clock                           500                       # Clock period in ticks
system.mem_ctrls0.bytes_read::ruby.dir_cntrl0     12634432                       # Number of bytes read from this memory
system.mem_ctrls0.bytes_read::total          12634432                       # Number of bytes read from this memory
system.mem_ctrls0.bytes_written::ruby.dir_cntrl0      8045888                       # Number of bytes written to this memory
system.mem_ctrls0.bytes_written::total        8045888                       # Number of bytes written to this memory
system.mem_ctrls0.num_reads::ruby.dir_cntrl0       197413                       # Number of read requests responded to by this memory
system.mem_ctrls0.num_reads::total             197413                       # Number of read requests responded to by this memory
system.mem_ctrls0.num_writes::ruby.dir_cntrl0       125717                       # Number of write requests responded to by this memory
system.mem_ctrls0.num_writes::total            125717                       # Number of write requests responded to by this memory
system.mem_ctrls0.bw_read::ruby.dir_cntrl0    222620692                       # Total read bandwidth from this memory (bytes/s)
system.mem_ctrls0.bw_read::total            222620692                       # Total read bandwidth from this memory (bytes/s)
system.mem_ctrls0.bw_write::ruby.dir_cntrl0    141769821                       # Write bandwidth from this memory (bytes/s)
system.mem_ctrls0.bw_write::total           141769821                       # Write bandwidth from this memory (bytes/s)
system.mem_ctrls0.bw_total::ruby.dir_cntrl0    364390513                       # Total bandwidth to/from this memory (bytes/s)
system.mem_ctrls0.bw_total::total           364390513                       # Total bandwidth to/from this memory (bytes/s)
system.mem_ctrls0.readReqs                     197413                       # Number of read requests accepted
system.mem_ctrls0.writeReqs                    125717                       # Number of write requests accepted
system.mem_ctrls0.readBursts                   197413                       # Number of DRAM read bursts, including those serviced by the write queue
system.mem_ctrls0.writeBursts                  125717                       # Number of DRAM write bursts, including those merged in the write queue
system.mem_ctrls0.bytesReadDRAM              12632832                       # Total number of bytes read from DRAM
system.mem_ctrls0.bytesReadWrQ                   1600                       # Total number of bytes read from write queue
system.mem_ctrls0.bytesWritten                8045632                       # Total number of bytes written to DRAM
system.mem_ctrls0.bytesReadSys               12634432                       # Total read bytes from the system interface side
system.mem_ctrls0.bytesWrittenSys             8045888                       # Total written bytes from the system interface side
system.mem_ctrls0.servicedByWrQ                    25                       # Number of DRAM read bursts serviced by the write queue
system.mem_ctrls0.mergedWrBursts                    0                       # Number of DRAM write bursts merged with an existing one
system.mem_ctrls0.neitherReadNorWriteReqs            0                       # Number of requests that are neither read nor write
system.mem_ctrls0.perBankRdBursts::0            12096                       # Per bank write bursts
system.mem_ctrls0.perBankRdBursts::1            12208                       # Per bank write bursts
system.mem_ctrls0.perBankRdBursts::2            12073                       # Per bank write bursts
system.mem_ctrls0.perBankRdBursts::3            12425                       # Per bank write bursts
system.mem_ctrls0.perBankRdBursts::4            12208                       # Per bank write bursts
system.mem_ctrls0.perBankRdBursts::5            12284                       # Per bank write bursts
system.mem_ctrls0.perBankRdBursts::6            12499                       # Per bank write bursts
system.mem_ctrls0.perBankRdBursts::7            12658                       # Per bank write bursts
system.mem_ctrls0.perBankRdBursts::8            12438                       # Per bank write bursts
system.mem_ctrls0.perBankRdBursts::9            12786                       # Per bank write bursts
system.mem_ctrls0.perBankRdBursts::10           12435                       # Per bank write bursts
system.mem_ctrls0.perBankRdBursts::11           12729                       # Per bank write bursts
system.mem_ctrls0.perBankRdBursts::12           12269                       # Per bank write bursts
system.mem_ctrls0.perBankRdBursts::13           12046                       # Per bank write bursts
system.mem_ctrls0.perBankRdBursts::14           12320                       # Per bank write bursts
system.mem_ctrls0.perBankRdBursts::15           11914                       # Per bank write bursts
system.mem_ctrls0.perBankWrBursts::0             7793                       # Per bank write bursts
system.mem_ctrls0.perBankWrBursts::1             7653                       # Per bank write bursts
system.mem_ctrls0.perBankWrBursts::2             7805                       # Per bank write bursts
system.mem_ctrls0.perBankWrBursts::3             7841                       # Per bank write bursts
system.mem_ctrls0.perBankWrBursts::4             7798                       # Per bank write bursts
system.mem_ctrls0.perBankWrBursts::5             7884                       # Per bank write bursts
system.mem_ctrls0.perBankWrBursts::6             8011                       # Per bank write bursts
system.mem_ctrls0.perBankWrBursts::7             8025                       # Per bank write bursts
system.mem_ctrls0.perBankWrBursts::8             7934                       # Per bank write bursts
system.mem_ctrls0.perBankWrBursts::9             8076                       # Per bank write bursts
system.mem_ctrls0.perBankWrBursts::10            7879                       # Per bank write bursts
system.mem_ctrls0.perBankWrBursts::11            7924                       # Per bank write bursts
system.mem_ctrls0.perBankWrBursts::12            7762                       # Per bank write bursts
system.mem_ctrls0.perBankWrBursts::13            7818                       # Per bank write bursts
system.mem_ctrls0.perBankWrBursts::14            7883                       # Per bank write bursts
system.mem_ctrls0.perBankWrBursts::15            7627                       # Per bank write bursts
system.mem_ctrls0.numRdRetry                    68661                       # Number of times read queue was full causing retry
system.mem_ctrls0.numWrRetry                     6301                       # Number of times write queue was full causing retry
system.mem_ctrls0.totGap                  56752687000                       # Total gap between requests
system.mem_ctrls0.readPktSize::0                    0                       # Read request sizes (log2)
system.mem_ctrls0.readPktSize::1                    0                       # Read request sizes (log2)
system.mem_ctrls0.readPktSize::2                    0                       # Read request sizes (log2)
system.mem_ctrls0.readPktSize::3                    0                       # Read request sizes (log2)
system.mem_ctrls0.readPktSize::4                    0                       # Read request sizes (log2)
system.mem_ctrls0.readPktSize::5                    0                       # Read request sizes (log2)
system.mem_ctrls0.readPktSize::6               197413                       # Read request sizes (log2)
system.mem_ctrls0.writePktSize::0                   0                       # Write request sizes (log2)
system.mem_ctrls0.writePktSize::1                   0                       # Write request sizes (log2)
system.mem_ctrls0.writePktSize::2                   0                       # Write request sizes (log2)
system.mem_ctrls0.writePktSize::3                   0                       # Write request sizes (log2)
system.mem_ctrls0.writePktSize::4                   0                       # Write request sizes (log2)
system.mem_ctrls0.writePktSize::5                   0                       # Write request sizes (log2)
system.mem_ctrls0.writePktSize::6              125717                       # Write request sizes (log2)
system.mem_ctrls0.rdQLenPdf::0                  68915                       # What read queue length does an incoming req see
system.mem_ctrls0.rdQLenPdf::1                   3070                       # What read queue length does an incoming req see
system.mem_ctrls0.rdQLenPdf::2                   1835                       # What read queue length does an incoming req see
system.mem_ctrls0.rdQLenPdf::3                   1234                       # What read queue length does an incoming req see
system.mem_ctrls0.rdQLenPdf::4                   1358                       # What read queue length does an incoming req see
system.mem_ctrls0.rdQLenPdf::5                   1450                       # What read queue length does an incoming req see
system.mem_ctrls0.rdQLenPdf::6                   1572                       # What read queue length does an incoming req see
system.mem_ctrls0.rdQLenPdf::7                   1662                       # What read queue length does an incoming req see
system.mem_ctrls0.rdQLenPdf::8                   1661                       # What read queue length does an incoming req see
system.mem_ctrls0.rdQLenPdf::9                   1677                       # What read queue length does an incoming req see
system.mem_ctrls0.rdQLenPdf::10                  1726                       # What read queue length does an incoming req see
system.mem_ctrls0.rdQLenPdf::11                  1696                       # What read queue length does an incoming req see
system.mem_ctrls0.rdQLenPdf::12                  1735                       # What read queue length does an incoming req see
system.mem_ctrls0.rdQLenPdf::13                  1735                       # What read queue length does an incoming req see
system.mem_ctrls0.rdQLenPdf::14                  1704                       # What read queue length does an incoming req see
system.mem_ctrls0.rdQLenPdf::15                  1703                       # What read queue length does an incoming req see
system.mem_ctrls0.rdQLenPdf::16                  1758                       # What read queue length does an incoming req see
system.mem_ctrls0.rdQLenPdf::17                  1815                       # What read queue length does an incoming req see
system.mem_ctrls0.rdQLenPdf::18                  1839                       # What read queue length does an incoming req see
system.mem_ctrls0.rdQLenPdf::19                  1821                       # What read queue length does an incoming req see
system.mem_ctrls0.rdQLenPdf::20                  1903                       # What read queue length does an incoming req see
system.mem_ctrls0.rdQLenPdf::21                  1966                       # What read queue length does an incoming req see
system.mem_ctrls0.rdQLenPdf::22                  2005                       # What read queue length does an incoming req see
system.mem_ctrls0.rdQLenPdf::23                  2018                       # What read queue length does an incoming req see
system.mem_ctrls0.rdQLenPdf::24                  2109                       # What read queue length does an incoming req see
system.mem_ctrls0.rdQLenPdf::25                  2067                       # What read queue length does an incoming req see
system.mem_ctrls0.rdQLenPdf::26                  2091                       # What read queue length does an incoming req see
system.mem_ctrls0.rdQLenPdf::27                  2149                       # What read queue length does an incoming req see
system.mem_ctrls0.rdQLenPdf::28                  2149                       # What read queue length does an incoming req see
system.mem_ctrls0.rdQLenPdf::29                  2322                       # What read queue length does an incoming req see
system.mem_ctrls0.rdQLenPdf::30                  2537                       # What read queue length does an incoming req see
system.mem_ctrls0.rdQLenPdf::31                 72106                       # What read queue length does an incoming req see
system.mem_ctrls0.wrQLenPdf::0                  16908                       # What write queue length does an incoming req see
system.mem_ctrls0.wrQLenPdf::1                  18496                       # What write queue length does an incoming req see
system.mem_ctrls0.wrQLenPdf::2                  19366                       # What write queue length does an incoming req see
system.mem_ctrls0.wrQLenPdf::3                  19785                       # What write queue length does an incoming req see
system.mem_ctrls0.wrQLenPdf::4                  20213                       # What write queue length does an incoming req see
system.mem_ctrls0.wrQLenPdf::5                   8184                       # What write queue length does an incoming req see
system.mem_ctrls0.wrQLenPdf::6                   9427                       # What write queue length does an incoming req see
system.mem_ctrls0.wrQLenPdf::7                  13338                       # What write queue length does an incoming req see
system.mem_ctrls0.bytesPerActivate::samples        84117                       # Bytes accessed per row activation
system.mem_ctrls0.bytesPerActivate::mean   245.800112                       # Bytes accessed per row activation
system.mem_ctrls0.bytesPerActivate::gmean   175.133515                       # Bytes accessed per row activation
system.mem_ctrls0.bytesPerActivate::stdev   217.650175                       # Bytes accessed per row activation
system.mem_ctrls0.bytesPerActivate::0-127        26041     30.96%     30.96% # Bytes accessed per row activation
system.mem_ctrls0.bytesPerActivate::128-255        21416     25.46%     56.42% # Bytes accessed per row activation
system.mem_ctrls0.bytesPerActivate::256-383        21944     26.09%     82.51% # Bytes accessed per row activation
system.mem_ctrls0.bytesPerActivate::384-511         5167      6.14%     88.65% # Bytes accessed per row activation
system.mem_ctrls0.bytesPerActivate::512-639         3430      4.08%     92.73% # Bytes accessed per row activation
system.mem_ctrls0.bytesPerActivate::640-767         1919      2.28%     95.01% # Bytes accessed per row activation
system.mem_ctrls0.bytesPerActivate::768-895         1169      1.39%     96.40% # Bytes accessed per row activation
system.mem_ctrls0.bytesPerActivate::896-1023          824      0.98%     97.38% # Bytes accessed per row activation
system.mem_ctrls0.bytesPerActivate::1024-1151         2207      2.62%    100.00% # Bytes accessed per row activation
system.mem_ctrls0.bytesPerActivate::total        84117                       # Bytes accessed per row activation
system.mem_ctrls0.rdPerTurnAround::samples        17639                       # Reads before turning the bus around for writes
system.mem_ctrls0.rdPerTurnAround::mean     11.189637                       # Reads before turning the bus around for writes
system.mem_ctrls0.rdPerTurnAround::stdev    32.013619                       # Reads before turning the bus around for writes
system.mem_ctrls0.rdPerTurnAround::0-127        17631     99.95%     99.95% # Reads before turning the bus around for writes
system.mem_ctrls0.rdPerTurnAround::128-255            7      0.04%     99.99% # Reads before turning the bus around for writes
system.mem_ctrls0.rdPerTurnAround::3968-4095            1      0.01%    100.00% # Reads before turning the bus around for writes
system.mem_ctrls0.rdPerTurnAround::total        17639                       # Reads before turning the bus around for writes
system.mem_ctrls0.wrPerTurnAround::samples        17639                       # Writes before turning the bus around for reads
system.mem_ctrls0.wrPerTurnAround::mean      7.126991                       # Writes before turning the bus around for reads
system.mem_ctrls0.wrPerTurnAround::gmean     6.475884                       # Writes before turning the bus around for reads
system.mem_ctrls0.wrPerTurnAround::stdev     3.564175                       # Writes before turning the bus around for reads
system.mem_ctrls0.wrPerTurnAround::4-7          12671     71.84%     71.84% # Writes before turning the bus around for reads
system.mem_ctrls0.wrPerTurnAround::8-11          2154     12.21%     84.05% # Writes before turning the bus around for reads
system.mem_ctrls0.wrPerTurnAround::12-15         1736      9.84%     93.89% # Writes before turning the bus around for reads
system.mem_ctrls0.wrPerTurnAround::16-19         1078      6.11%    100.00% # Writes before turning the bus around for reads
system.mem_ctrls0.wrPerTurnAround::total        17639                       # Writes before turning the bus around for reads
system.mem_ctrls0.totQLat                 32438743531                       # Total ticks spent queuing
system.mem_ctrls0.totMemAccLat            36139768531                       # Total ticks spent from burst creation until serviced by the DRAM
system.mem_ctrls0.totBusLat                 986940000                       # Total ticks spent in databus transfers
system.mem_ctrls0.avgQLat                   164340.00                       # Average queueing delay per DRAM burst
system.mem_ctrls0.avgBusLat                   5000.00                       # Average bus latency per DRAM burst
system.mem_ctrls0.avgMemAccLat              183090.00                       # Average memory access latency per DRAM burst
system.mem_ctrls0.avgRdBW                      222.59                       # Average DRAM read bandwidth in MiByte/s
system.mem_ctrls0.avgWrBW                      141.77                       # Average achieved write bandwidth in MiByte/s
system.mem_ctrls0.avgRdBWSys                   222.62                       # Average system read bandwidth in MiByte/s
system.mem_ctrls0.avgWrBWSys                   141.77                       # Average system write bandwidth in MiByte/s
system.mem_ctrls0.peakBW                     12800.00                       # Theoretical peak bandwidth in MiByte/s
system.mem_ctrls0.busUtil                        2.85                       # Data bus utilization in percentage
system.mem_ctrls0.busUtilRead                    1.74                       # Data bus utilization in percentage for reads
system.mem_ctrls0.busUtilWrite                   1.11                       # Data bus utilization in percentage for writes
system.mem_ctrls0.avgRdQLen                      1.60                       # Average read queue length when enqueuing
system.mem_ctrls0.avgWrQLen                      2.93                       # Average write queue length when enqueuing
system.mem_ctrls0.readRowHits                  154720                       # Number of row buffer hits during reads
system.mem_ctrls0.writeRowHits                  84250                       # Number of row buffer hits during writes
system.mem_ctrls0.readRowHitRate                78.38                       # Row buffer hit rate for reads
system.mem_ctrls0.writeRowHitRate               67.02                       # Row buffer hit rate for writes
system.mem_ctrls0.avgGap                    175634.22                       # Average gap between requests
system.mem_ctrls0.pageHitRate                   73.96                       # Row buffer hit rate, read and write combined
system.mem_ctrls0.memoryStateTime::IDLE   11628272000                       # Time in different power states
system.mem_ctrls0.memoryStateTime::REF     1894880000                       # Time in different power states
system.mem_ctrls0.memoryStateTime::PRE_PDN            0                       # Time in different power states
system.mem_ctrls0.memoryStateTime::ACT    43223311750                       # Time in different power states
system.mem_ctrls0.memoryStateTime::ACT_PDN            0                       # Time in different power states
system.mem_ctrls0.actEnergy::0              320710320                       # Energy for activate commands per rank (pJ)
system.mem_ctrls0.actEnergy::1              315055440                       # Energy for activate commands per rank (pJ)
system.mem_ctrls0.preEnergy::0              174990750                       # Energy for precharge commands per rank (pJ)
system.mem_ctrls0.preEnergy::1              171905250                       # Energy for precharge commands per rank (pJ)
system.mem_ctrls0.readEnergy::0             767254800                       # Energy for read commands per rank (pJ)
system.mem_ctrls0.readEnergy::1             771061200                       # Energy for read commands per rank (pJ)
system.mem_ctrls0.writeEnergy::0            406833840                       # Energy for write commands per rank (pJ)
system.mem_ctrls0.writeEnergy::1            407604960                       # Energy for write commands per rank (pJ)
system.mem_ctrls0.refreshEnergy::0         3706385280                       # Energy for refresh commands per rank (pJ)
system.mem_ctrls0.refreshEnergy::1         3706385280                       # Energy for refresh commands per rank (pJ)
system.mem_ctrls0.actBackEnergy::0        22318860150                       # Energy for active background per rank (pJ)
system.mem_ctrls0.actBackEnergy::1        21799986300                       # Energy for active background per rank (pJ)
system.mem_ctrls0.preBackEnergy::0        14469922500                       # Energy for precharge background per rank (pJ)
system.mem_ctrls0.preBackEnergy::1        14925075000                       # Energy for precharge background per rank (pJ)
system.mem_ctrls0.totalEnergy::0          42164957640                       # Total energy per rank (pJ)
system.mem_ctrls0.totalEnergy::1          42097073430                       # Total energy per rank (pJ)
system.mem_ctrls0.averagePower::0          743.041329                       # Core power per rank (mW)
system.mem_ctrls0.averagePower::1          741.845057                       # Core power per rank (mW)
system.mem_ctrls1.bytes_read::ruby.dir_cntrl1     12407616                       # Number of bytes read from this memory
system.mem_ctrls1.bytes_read::total          12407616                       # Number of bytes read from this memory
system.mem_ctrls1.bytes_written::ruby.dir_cntrl1      7828416                       # Number of bytes written to this memory
system.mem_ctrls1.bytes_written::total        7828416                       # Number of bytes written to this memory
system.mem_ctrls1.num_reads::ruby.dir_cntrl1       193869                       # Number of read requests responded to by this memory
system.mem_ctrls1.num_reads::total             193869                       # Number of read requests responded to by this memory
system.mem_ctrls1.num_writes::ruby.dir_cntrl1       122319                       # Number of write requests responded to by this memory
system.mem_ctrls1.num_writes::total            122319                       # Number of write requests responded to by this memory
system.mem_ctrls1.bw_read::ruby.dir_cntrl1    218624158                       # Total read bandwidth from this memory (bytes/s)
system.mem_ctrls1.bw_read::total            218624158                       # Total read bandwidth from this memory (bytes/s)
system.mem_ctrls1.bw_write::ruby.dir_cntrl1    137937929                       # Write bandwidth from this memory (bytes/s)
system.mem_ctrls1.bw_write::total           137937929                       # Write bandwidth from this memory (bytes/s)
system.mem_ctrls1.bw_total::ruby.dir_cntrl1    356562088                       # Total bandwidth to/from this memory (bytes/s)
system.mem_ctrls1.bw_total::total           356562088                       # Total bandwidth to/from this memory (bytes/s)
system.mem_ctrls1.readReqs                     193869                       # Number of read requests accepted
system.mem_ctrls1.writeReqs                    122319                       # Number of write requests accepted
system.mem_ctrls1.readBursts                   193869                       # Number of DRAM read bursts, including those serviced by the write queue
system.mem_ctrls1.writeBursts                  122319                       # Number of DRAM write bursts, including those merged in the write queue
system.mem_ctrls1.bytesReadDRAM              12406144                       # Total number of bytes read from DRAM
system.mem_ctrls1.bytesReadWrQ                   1472                       # Total number of bytes read from write queue
system.mem_ctrls1.bytesWritten                7828160                       # Total number of bytes written to DRAM
system.mem_ctrls1.bytesReadSys               12407616                       # Total read bytes from the system interface side
system.mem_ctrls1.bytesWrittenSys             7828416                       # Total written bytes from the system interface side
system.mem_ctrls1.servicedByWrQ                    23                       # Number of DRAM read bursts serviced by the write queue
system.mem_ctrls1.mergedWrBursts                    0                       # Number of DRAM write bursts merged with an existing one
system.mem_ctrls1.neitherReadNorWriteReqs            0                       # Number of requests that are neither read nor write
system.mem_ctrls1.perBankRdBursts::0            11883                       # Per bank write bursts
system.mem_ctrls1.perBankRdBursts::1            11985                       # Per bank write bursts
system.mem_ctrls1.perBankRdBursts::2            11845                       # Per bank write bursts
system.mem_ctrls1.perBankRdBursts::3            12189                       # Per bank write bursts
system.mem_ctrls1.perBankRdBursts::4            12004                       # Per bank write bursts
system.mem_ctrls1.perBankRdBursts::5            12103                       # Per bank write bursts
system.mem_ctrls1.perBankRdBursts::6            12322                       # Per bank write bursts
system.mem_ctrls1.perBankRdBursts::7            12444                       # Per bank write bursts
system.mem_ctrls1.perBankRdBursts::8            12203                       # Per bank write bursts
system.mem_ctrls1.perBankRdBursts::9            12561                       # Per bank write bursts
system.mem_ctrls1.perBankRdBursts::10           12200                       # Per bank write bursts
system.mem_ctrls1.perBankRdBursts::11           12536                       # Per bank write bursts
system.mem_ctrls1.perBankRdBursts::12           12043                       # Per bank write bursts
system.mem_ctrls1.perBankRdBursts::13           11813                       # Per bank write bursts
system.mem_ctrls1.perBankRdBursts::14           12003                       # Per bank write bursts
system.mem_ctrls1.perBankRdBursts::15           11712                       # Per bank write bursts
system.mem_ctrls1.perBankWrBursts::0             7590                       # Per bank write bursts
system.mem_ctrls1.perBankWrBursts::1             7462                       # Per bank write bursts
system.mem_ctrls1.perBankWrBursts::2             7601                       # Per bank write bursts
system.mem_ctrls1.perBankWrBursts::3             7630                       # Per bank write bursts
system.mem_ctrls1.perBankWrBursts::4             7599                       # Per bank write bursts
system.mem_ctrls1.perBankWrBursts::5             7686                       # Per bank write bursts
system.mem_ctrls1.perBankWrBursts::6             7788                       # Per bank write bursts
system.mem_ctrls1.perBankWrBursts::7             7805                       # Per bank write bursts
system.mem_ctrls1.perBankWrBursts::8             7724                       # Per bank write bursts
system.mem_ctrls1.perBankWrBursts::9             7860                       # Per bank write bursts
system.mem_ctrls1.perBankWrBursts::10            7662                       # Per bank write bursts
system.mem_ctrls1.perBankWrBursts::11            7712                       # Per bank write bursts
system.mem_ctrls1.perBankWrBursts::12            7552                       # Per bank write bursts
system.mem_ctrls1.perBankWrBursts::13            7603                       # Per bank write bursts
system.mem_ctrls1.perBankWrBursts::14            7612                       # Per bank write bursts
system.mem_ctrls1.perBankWrBursts::15            7429                       # Per bank write bursts
system.mem_ctrls1.numRdRetry                    63744                       # Number of times read queue was full causing retry
system.mem_ctrls1.numWrRetry                     6101                       # Number of times write queue was full causing retry
system.mem_ctrls1.totGap                  56752409000                       # Total gap between requests
system.mem_ctrls1.readPktSize::0                    0                       # Read request sizes (log2)
system.mem_ctrls1.readPktSize::1                    0                       # Read request sizes (log2)
system.mem_ctrls1.readPktSize::2                    0                       # Read request sizes (log2)
system.mem_ctrls1.readPktSize::3                    0                       # Read request sizes (log2)
system.mem_ctrls1.readPktSize::4                    0                       # Read request sizes (log2)
system.mem_ctrls1.readPktSize::5                    0                       # Read request sizes (log2)
system.mem_ctrls1.readPktSize::6               193869                       # Read request sizes (log2)
system.mem_ctrls1.writePktSize::0                   0                       # Write request sizes (log2)
system.mem_ctrls1.writePktSize::1                   0                       # Write request sizes (log2)
system.mem_ctrls1.writePktSize::2                   0                       # Write request sizes (log2)
system.mem_ctrls1.writePktSize::3                   0                       # Write request sizes (log2)
system.mem_ctrls1.writePktSize::4                   0                       # Write request sizes (log2)
system.mem_ctrls1.writePktSize::5                   0                       # Write request sizes (log2)
system.mem_ctrls1.writePktSize::6              122319                       # Write request sizes (log2)
system.mem_ctrls1.rdQLenPdf::0                  67643                       # What read queue length does an incoming req see
system.mem_ctrls1.rdQLenPdf::1                   1637                       # What read queue length does an incoming req see
system.mem_ctrls1.rdQLenPdf::2                   1290                       # What read queue length does an incoming req see
system.mem_ctrls1.rdQLenPdf::3                   1403                       # What read queue length does an incoming req see
system.mem_ctrls1.rdQLenPdf::4                   1471                       # What read queue length does an incoming req see
system.mem_ctrls1.rdQLenPdf::5                   1664                       # What read queue length does an incoming req see
system.mem_ctrls1.rdQLenPdf::6                   1809                       # What read queue length does an incoming req see
system.mem_ctrls1.rdQLenPdf::7                   1884                       # What read queue length does an incoming req see
system.mem_ctrls1.rdQLenPdf::8                   1883                       # What read queue length does an incoming req see
system.mem_ctrls1.rdQLenPdf::9                   1857                       # What read queue length does an incoming req see
system.mem_ctrls1.rdQLenPdf::10                  1960                       # What read queue length does an incoming req see
system.mem_ctrls1.rdQLenPdf::11                  2026                       # What read queue length does an incoming req see
system.mem_ctrls1.rdQLenPdf::12                  2001                       # What read queue length does an incoming req see
system.mem_ctrls1.rdQLenPdf::13                  1942                       # What read queue length does an incoming req see
system.mem_ctrls1.rdQLenPdf::14                  1966                       # What read queue length does an incoming req see
system.mem_ctrls1.rdQLenPdf::15                  1940                       # What read queue length does an incoming req see
system.mem_ctrls1.rdQLenPdf::16                  2005                       # What read queue length does an incoming req see
system.mem_ctrls1.rdQLenPdf::17                  2024                       # What read queue length does an incoming req see
system.mem_ctrls1.rdQLenPdf::18                  2008                       # What read queue length does an incoming req see
system.mem_ctrls1.rdQLenPdf::19                  2036                       # What read queue length does an incoming req see
system.mem_ctrls1.rdQLenPdf::20                  2054                       # What read queue length does an incoming req see
system.mem_ctrls1.rdQLenPdf::21                  2079                       # What read queue length does an incoming req see
system.mem_ctrls1.rdQLenPdf::22                  2047                       # What read queue length does an incoming req see
system.mem_ctrls1.rdQLenPdf::23                  1991                       # What read queue length does an incoming req see
system.mem_ctrls1.rdQLenPdf::24                  1968                       # What read queue length does an incoming req see
system.mem_ctrls1.rdQLenPdf::25                  1993                       # What read queue length does an incoming req see
system.mem_ctrls1.rdQLenPdf::26                  2091                       # What read queue length does an incoming req see
system.mem_ctrls1.rdQLenPdf::27                  2189                       # What read queue length does an incoming req see
system.mem_ctrls1.rdQLenPdf::28                  2341                       # What read queue length does an incoming req see
system.mem_ctrls1.rdQLenPdf::29                  2541                       # What read queue length does an incoming req see
system.mem_ctrls1.rdQLenPdf::30                  2763                       # What read queue length does an incoming req see
system.mem_ctrls1.rdQLenPdf::31                 67340                       # What read queue length does an incoming req see
system.mem_ctrls1.wrQLenPdf::0                  16405                       # What write queue length does an incoming req see
system.mem_ctrls1.wrQLenPdf::1                  18074                       # What write queue length does an incoming req see
system.mem_ctrls1.wrQLenPdf::2                  18724                       # What write queue length does an incoming req see
system.mem_ctrls1.wrQLenPdf::3                  19165                       # What write queue length does an incoming req see
system.mem_ctrls1.wrQLenPdf::4                  19593                       # What write queue length does an incoming req see
system.mem_ctrls1.wrQLenPdf::5                   8158                       # What write queue length does an incoming req see
system.mem_ctrls1.wrQLenPdf::6                   9251                       # What write queue length does an incoming req see
system.mem_ctrls1.wrQLenPdf::7                  12949                       # What write queue length does an incoming req see
system.mem_ctrls1.bytesPerActivate::samples        77105                       # Bytes accessed per row activation
system.mem_ctrls1.bytesPerActivate::mean   262.387134                       # Bytes accessed per row activation
system.mem_ctrls1.bytesPerActivate::gmean   190.679228                       # Bytes accessed per row activation
system.mem_ctrls1.bytesPerActivate::stdev   221.692086                       # Bytes accessed per row activation
system.mem_ctrls1.bytesPerActivate::0-127        19883     25.79%     25.79% # Bytes accessed per row activation
system.mem_ctrls1.bytesPerActivate::128-255        20370     26.42%     52.21% # Bytes accessed per row activation
system.mem_ctrls1.bytesPerActivate::256-383        22062     28.61%     80.82% # Bytes accessed per row activation
system.mem_ctrls1.bytesPerActivate::384-511         5161      6.69%     87.51% # Bytes accessed per row activation
system.mem_ctrls1.bytesPerActivate::512-639         3542      4.59%     92.11% # Bytes accessed per row activation
system.mem_ctrls1.bytesPerActivate::640-767         1822      2.36%     94.47% # Bytes accessed per row activation
system.mem_ctrls1.bytesPerActivate::768-895         1174      1.52%     95.99% # Bytes accessed per row activation
system.mem_ctrls1.bytesPerActivate::896-1023          796      1.03%     97.02% # Bytes accessed per row activation
system.mem_ctrls1.bytesPerActivate::1024-1151         2295      2.98%    100.00% # Bytes accessed per row activation
system.mem_ctrls1.bytesPerActivate::total        77105                       # Bytes accessed per row activation
system.mem_ctrls1.rdPerTurnAround::samples        17119                       # Reads before turning the bus around for writes
system.mem_ctrls1.rdPerTurnAround::mean     11.322624                       # Reads before turning the bus around for writes
system.mem_ctrls1.rdPerTurnAround::stdev    26.406704                       # Reads before turning the bus around for writes
system.mem_ctrls1.rdPerTurnAround::0-127        17113     99.96%     99.96% # Reads before turning the bus around for writes
system.mem_ctrls1.rdPerTurnAround::128-255            4      0.02%     99.99% # Reads before turning the bus around for writes
system.mem_ctrls1.rdPerTurnAround::1152-1279            1      0.01%     99.99% # Reads before turning the bus around for writes
system.mem_ctrls1.rdPerTurnAround::2816-2943            1      0.01%    100.00% # Reads before turning the bus around for writes
system.mem_ctrls1.rdPerTurnAround::total        17119                       # Reads before turning the bus around for writes
system.mem_ctrls1.wrPerTurnAround::samples        17119                       # Writes before turning the bus around for reads
system.mem_ctrls1.wrPerTurnAround::mean      7.144985                       # Writes before turning the bus around for reads
system.mem_ctrls1.wrPerTurnAround::gmean     6.490663                       # Writes before turning the bus around for reads
system.mem_ctrls1.wrPerTurnAround::stdev     3.567438                       # Writes before turning the bus around for reads
system.mem_ctrls1.wrPerTurnAround::4-7          12155     71.00%     71.00% # Writes before turning the bus around for reads
system.mem_ctrls1.wrPerTurnAround::8-11          2227     13.01%     84.01% # Writes before turning the bus around for reads
system.mem_ctrls1.wrPerTurnAround::12-15         1684      9.84%     93.85% # Writes before turning the bus around for reads
system.mem_ctrls1.wrPerTurnAround::16-19         1053      6.15%    100.00% # Writes before turning the bus around for reads
system.mem_ctrls1.wrPerTurnAround::total        17119                       # Writes before turning the bus around for reads
system.mem_ctrls1.totQLat                 31368196591                       # Total ticks spent queuing
system.mem_ctrls1.totMemAccLat            35002809091                       # Total ticks spent from burst creation until serviced by the DRAM
system.mem_ctrls1.totBusLat                 969230000                       # Total ticks spent in databus transfers
system.mem_ctrls1.avgQLat                   161820.19                       # Average queueing delay per DRAM burst
system.mem_ctrls1.avgBusLat                   5000.00                       # Average bus latency per DRAM burst
system.mem_ctrls1.avgMemAccLat              180570.19                       # Average memory access latency per DRAM burst
system.mem_ctrls1.avgRdBW                      218.60                       # Average DRAM read bandwidth in MiByte/s
system.mem_ctrls1.avgWrBW                      137.93                       # Average achieved write bandwidth in MiByte/s
system.mem_ctrls1.avgRdBWSys                   218.62                       # Average system read bandwidth in MiByte/s
system.mem_ctrls1.avgWrBWSys                   137.94                       # Average system write bandwidth in MiByte/s
system.mem_ctrls1.peakBW                     12800.00                       # Theoretical peak bandwidth in MiByte/s
system.mem_ctrls1.busUtil                        2.79                       # Data bus utilization in percentage
system.mem_ctrls1.busUtilRead                    1.71                       # Data bus utilization in percentage for reads
system.mem_ctrls1.busUtilWrite                   1.08                       # Data bus utilization in percentage for writes
system.mem_ctrls1.avgRdQLen                      1.58                       # Average read queue length when enqueuing
system.mem_ctrls1.avgWrQLen                      2.97                       # Average write queue length when enqueuing
system.mem_ctrls1.readRowHits                  153493                       # Number of row buffer hits during reads
system.mem_ctrls1.writeRowHits                  85552                       # Number of row buffer hits during writes
system.mem_ctrls1.readRowHitRate                79.18                       # Row buffer hit rate for reads
system.mem_ctrls1.writeRowHitRate               69.94                       # Row buffer hit rate for writes
system.mem_ctrls1.avgGap                    179489.45                       # Average gap between requests
system.mem_ctrls1.pageHitRate                   75.61                       # Row buffer hit rate, read and write combined
system.mem_ctrls1.memoryStateTime::IDLE   11894772750                       # Time in different power states
system.mem_ctrls1.memoryStateTime::REF     1894880000                       # Time in different power states
system.mem_ctrls1.memoryStateTime::PRE_PDN            0                       # Time in different power states
system.mem_ctrls1.memoryStateTime::ACT    42956817000                       # Time in different power states
system.mem_ctrls1.memoryStateTime::ACT_PDN            0                       # Time in different power states
system.mem_ctrls1.actEnergy::0              295278480                       # Energy for activate commands per rank (pJ)
system.mem_ctrls1.actEnergy::1              287499240                       # Energy for activate commands per rank (pJ)
system.mem_ctrls1.preEnergy::0              161114250                       # Energy for precharge commands per rank (pJ)
system.mem_ctrls1.preEnergy::1              156869625                       # Energy for precharge commands per rank (pJ)
system.mem_ctrls1.readEnergy::0             754221000                       # Energy for read commands per rank (pJ)
system.mem_ctrls1.readEnergy::1             756498600                       # Energy for read commands per rank (pJ)
system.mem_ctrls1.writeEnergy::0            396148320                       # Energy for write commands per rank (pJ)
system.mem_ctrls1.writeEnergy::1            396271440                       # Energy for write commands per rank (pJ)
system.mem_ctrls1.refreshEnergy::0         3706385280                       # Energy for refresh commands per rank (pJ)
system.mem_ctrls1.refreshEnergy::1         3706385280                       # Energy for refresh commands per rank (pJ)
system.mem_ctrls1.actBackEnergy::0        22094529525                       # Energy for active background per rank (pJ)
system.mem_ctrls1.actBackEnergy::1        21538927440                       # Energy for active background per rank (pJ)
system.mem_ctrls1.preBackEnergy::0        14666707500                       # Energy for precharge background per rank (pJ)
system.mem_ctrls1.preBackEnergy::1        15154077750                       # Energy for precharge background per rank (pJ)
system.mem_ctrls1.totalEnergy::0          42074384355                       # Total energy per rank (pJ)
system.mem_ctrls1.totalEnergy::1          41996529375                       # Total energy per rank (pJ)
system.mem_ctrls1.averagePower::0          741.445143                       # Core power per rank (mW)
system.mem_ctrls1.averagePower::1          740.073163                       # Core power per rank (mW)
system.mem_ctrls2.bytes_read::ruby.dir_cntrl2     12407744                       # Number of bytes read from this memory
system.mem_ctrls2.bytes_read::total          12407744                       # Number of bytes read from this memory
system.mem_ctrls2.bytes_written::ruby.dir_cntrl2      7828672                       # Number of bytes written to this memory
system.mem_ctrls2.bytes_written::total        7828672                       # Number of bytes written to this memory
system.mem_ctrls2.num_reads::ruby.dir_cntrl2       193871                       # Number of read requests responded to by this memory
system.mem_ctrls2.num_reads::total             193871                       # Number of read requests responded to by this memory
system.mem_ctrls2.num_writes::ruby.dir_cntrl2       122323                       # Number of write requests responded to by this memory
system.mem_ctrls2.num_writes::total            122323                       # Number of write requests responded to by this memory
system.mem_ctrls2.bw_read::ruby.dir_cntrl2    218626414                       # Total read bandwidth from this memory (bytes/s)
system.mem_ctrls2.bw_read::total            218626414                       # Total read bandwidth from this memory (bytes/s)
system.mem_ctrls2.bw_write::ruby.dir_cntrl2    137942440                       # Write bandwidth from this memory (bytes/s)
system.mem_ctrls2.bw_write::total           137942440                       # Write bandwidth from this memory (bytes/s)
system.mem_ctrls2.bw_total::ruby.dir_cntrl2    356568854                       # Total bandwidth to/from this memory (bytes/s)
system.mem_ctrls2.bw_total::total           356568854                       # Total bandwidth to/from this memory (bytes/s)
system.mem_ctrls2.readReqs                     193871                       # Number of read requests accepted
system.mem_ctrls2.writeReqs                    122323                       # Number of write requests accepted
system.mem_ctrls2.readBursts                   193871                       # Number of DRAM read bursts, including those serviced by the write queue
system.mem_ctrls2.writeBursts                  122323                       # Number of DRAM write bursts, including those merged in the write queue
system.mem_ctrls2.bytesReadDRAM              12406400                       # Total number of bytes read from DRAM
system.mem_ctrls2.bytesReadWrQ                   1344                       # Total number of bytes read from write queue
system.mem_ctrls2.bytesWritten                7828672                       # Total number of bytes written to DRAM
system.mem_ctrls2.bytesReadSys               12407744                       # Total read bytes from the system interface side
system.mem_ctrls2.bytesWrittenSys             7828672                       # Total written bytes from the system interface side
system.mem_ctrls2.servicedByWrQ                    21                       # Number of DRAM read bursts serviced by the write queue
system.mem_ctrls2.mergedWrBursts                    0                       # Number of DRAM write bursts merged with an existing one
system.mem_ctrls2.neitherReadNorWriteReqs            0                       # Number of requests that are neither read nor write
system.mem_ctrls2.perBankRdBursts::0            11877                       # Per bank write bursts
system.mem_ctrls2.perBankRdBursts::1            12014                       # Per bank write bursts
system.mem_ctrls2.perBankRdBursts::2            11868                       # Per bank write bursts
system.mem_ctrls2.perBankRdBursts::3            12229                       # Per bank write bursts
system.mem_ctrls2.perBankRdBursts::4            12009                       # Per bank write bursts
system.mem_ctrls2.perBankRdBursts::5            12084                       # Per bank write bursts
system.mem_ctrls2.perBankRdBursts::6            12288                       # Per bank write bursts
system.mem_ctrls2.perBankRdBursts::7            12447                       # Per bank write bursts
system.mem_ctrls2.perBankRdBursts::8            12192                       # Per bank write bursts
system.mem_ctrls2.perBankRdBursts::9            12542                       # Per bank write bursts
system.mem_ctrls2.perBankRdBursts::10           12212                       # Per bank write bursts
system.mem_ctrls2.perBankRdBursts::11           12575                       # Per bank write bursts
system.mem_ctrls2.perBankRdBursts::12           12039                       # Per bank write bursts
system.mem_ctrls2.perBankRdBursts::13           11776                       # Per bank write bursts
system.mem_ctrls2.perBankRdBursts::14           11986                       # Per bank write bursts
system.mem_ctrls2.perBankRdBursts::15           11712                       # Per bank write bursts
system.mem_ctrls2.perBankWrBursts::0             7583                       # Per bank write bursts
system.mem_ctrls2.perBankWrBursts::1             7459                       # Per bank write bursts
system.mem_ctrls2.perBankWrBursts::2             7601                       # Per bank write bursts
system.mem_ctrls2.perBankWrBursts::3             7639                       # Per bank write bursts
system.mem_ctrls2.perBankWrBursts::4             7599                       # Per bank write bursts
system.mem_ctrls2.perBankWrBursts::5             7672                       # Per bank write bursts
system.mem_ctrls2.perBankWrBursts::6             7781                       # Per bank write bursts
system.mem_ctrls2.perBankWrBursts::7             7816                       # Per bank write bursts
system.mem_ctrls2.perBankWrBursts::8             7726                       # Per bank write bursts
system.mem_ctrls2.perBankWrBursts::9             7861                       # Per bank write bursts
system.mem_ctrls2.perBankWrBursts::10            7662                       # Per bank write bursts
system.mem_ctrls2.perBankWrBursts::11            7721                       # Per bank write bursts
system.mem_ctrls2.perBankWrBursts::12            7559                       # Per bank write bursts
system.mem_ctrls2.perBankWrBursts::13            7593                       # Per bank write bursts
system.mem_ctrls2.perBankWrBursts::14            7619                       # Per bank write bursts
system.mem_ctrls2.perBankWrBursts::15            7432                       # Per bank write bursts
system.mem_ctrls2.numRdRetry                    60172                       # Number of times read queue was full causing retry
system.mem_ctrls2.numWrRetry                     6031                       # Number of times write queue was full causing retry
system.mem_ctrls2.totGap                  56753041000                       # Total gap between requests
system.mem_ctrls2.readPktSize::0                    0                       # Read request sizes (log2)
system.mem_ctrls2.readPktSize::1                    0                       # Read request sizes (log2)
system.mem_ctrls2.readPktSize::2                    0                       # Read request sizes (log2)
system.mem_ctrls2.readPktSize::3                    0                       # Read request sizes (log2)
system.mem_ctrls2.readPktSize::4                    0                       # Read request sizes (log2)
system.mem_ctrls2.readPktSize::5                    0                       # Read request sizes (log2)
system.mem_ctrls2.readPktSize::6               193871                       # Read request sizes (log2)
system.mem_ctrls2.writePktSize::0                   0                       # Write request sizes (log2)
system.mem_ctrls2.writePktSize::1                   0                       # Write request sizes (log2)
system.mem_ctrls2.writePktSize::2                   0                       # Write request sizes (log2)
system.mem_ctrls2.writePktSize::3                   0                       # Write request sizes (log2)
system.mem_ctrls2.writePktSize::4                   0                       # Write request sizes (log2)
system.mem_ctrls2.writePktSize::5                   0                       # Write request sizes (log2)
system.mem_ctrls2.writePktSize::6              122323                       # Write request sizes (log2)
system.mem_ctrls2.rdQLenPdf::0                  67751                       # What read queue length does an incoming req see
system.mem_ctrls2.rdQLenPdf::1                   1581                       # What read queue length does an incoming req see
system.mem_ctrls2.rdQLenPdf::2                   1264                       # What read queue length does an incoming req see
system.mem_ctrls2.rdQLenPdf::3                   1353                       # What read queue length does an incoming req see
system.mem_ctrls2.rdQLenPdf::4                   1544                       # What read queue length does an incoming req see
system.mem_ctrls2.rdQLenPdf::5                   1671                       # What read queue length does an incoming req see
system.mem_ctrls2.rdQLenPdf::6                   1780                       # What read queue length does an incoming req see
system.mem_ctrls2.rdQLenPdf::7                   1877                       # What read queue length does an incoming req see
system.mem_ctrls2.rdQLenPdf::8                   1903                       # What read queue length does an incoming req see
system.mem_ctrls2.rdQLenPdf::9                   1964                       # What read queue length does an incoming req see
system.mem_ctrls2.rdQLenPdf::10                  1953                       # What read queue length does an incoming req see
system.mem_ctrls2.rdQLenPdf::11                  2022                       # What read queue length does an incoming req see
system.mem_ctrls2.rdQLenPdf::12                  1994                       # What read queue length does an incoming req see
system.mem_ctrls2.rdQLenPdf::13                  2078                       # What read queue length does an incoming req see
system.mem_ctrls2.rdQLenPdf::14                  2146                       # What read queue length does an incoming req see
system.mem_ctrls2.rdQLenPdf::15                  2055                       # What read queue length does an incoming req see
system.mem_ctrls2.rdQLenPdf::16                  2053                       # What read queue length does an incoming req see
system.mem_ctrls2.rdQLenPdf::17                  2077                       # What read queue length does an incoming req see
system.mem_ctrls2.rdQLenPdf::18                  2086                       # What read queue length does an incoming req see
system.mem_ctrls2.rdQLenPdf::19                  2143                       # What read queue length does an incoming req see
system.mem_ctrls2.rdQLenPdf::20                  2233                       # What read queue length does an incoming req see
system.mem_ctrls2.rdQLenPdf::21                  2258                       # What read queue length does an incoming req see
system.mem_ctrls2.rdQLenPdf::22                  2252                       # What read queue length does an incoming req see
system.mem_ctrls2.rdQLenPdf::23                  2273                       # What read queue length does an incoming req see
system.mem_ctrls2.rdQLenPdf::24                  2240                       # What read queue length does an incoming req see
system.mem_ctrls2.rdQLenPdf::25                  2257                       # What read queue length does an incoming req see
system.mem_ctrls2.rdQLenPdf::26                  2293                       # What read queue length does an incoming req see
system.mem_ctrls2.rdQLenPdf::27                  2510                       # What read queue length does an incoming req see
system.mem_ctrls2.rdQLenPdf::28                  2689                       # What read queue length does an incoming req see
system.mem_ctrls2.rdQLenPdf::29                  2866                       # What read queue length does an incoming req see
system.mem_ctrls2.rdQLenPdf::30                  2864                       # What read queue length does an incoming req see
system.mem_ctrls2.rdQLenPdf::31                 63820                       # What read queue length does an incoming req see
system.mem_ctrls2.wrQLenPdf::0                  16370                       # What write queue length does an incoming req see
system.mem_ctrls2.wrQLenPdf::1                  18105                       # What write queue length does an incoming req see
system.mem_ctrls2.wrQLenPdf::2                  18801                       # What write queue length does an incoming req see
system.mem_ctrls2.wrQLenPdf::3                  19300                       # What write queue length does an incoming req see
system.mem_ctrls2.wrQLenPdf::4                  19549                       # What write queue length does an incoming req see
system.mem_ctrls2.wrQLenPdf::5                   8191                       # What write queue length does an incoming req see
system.mem_ctrls2.wrQLenPdf::6                   9189                       # What write queue length does an incoming req see
system.mem_ctrls2.wrQLenPdf::7                  12818                       # What write queue length does an incoming req see
system.mem_ctrls2.bytesPerActivate::samples        76952                       # Bytes accessed per row activation
system.mem_ctrls2.bytesPerActivate::mean   262.929618                       # Bytes accessed per row activation
system.mem_ctrls2.bytesPerActivate::gmean   191.817756                       # Bytes accessed per row activation
system.mem_ctrls2.bytesPerActivate::stdev   220.605680                       # Bytes accessed per row activation
system.mem_ctrls2.bytesPerActivate::0-127        19463     25.29%     25.29% # Bytes accessed per row activation
system.mem_ctrls2.bytesPerActivate::128-255        20465     26.59%     51.89% # Bytes accessed per row activation
system.mem_ctrls2.bytesPerActivate::256-383        22320     29.01%     80.89% # Bytes accessed per row activation
system.mem_ctrls2.bytesPerActivate::384-511         5108      6.64%     87.53% # Bytes accessed per row activation
system.mem_ctrls2.bytesPerActivate::512-639         3587      4.66%     92.19% # Bytes accessed per row activation
system.mem_ctrls2.bytesPerActivate::640-767         1815      2.36%     94.55% # Bytes accessed per row activation
system.mem_ctrls2.bytesPerActivate::768-895         1124      1.46%     96.01% # Bytes accessed per row activation
system.mem_ctrls2.bytesPerActivate::896-1023          786      1.02%     97.03% # Bytes accessed per row activation
system.mem_ctrls2.bytesPerActivate::1024-1151         2284      2.97%    100.00% # Bytes accessed per row activation
system.mem_ctrls2.bytesPerActivate::total        76952                       # Bytes accessed per row activation
system.mem_ctrls2.rdPerTurnAround::samples        17110                       # Reads before turning the bus around for writes
system.mem_ctrls2.rdPerTurnAround::mean     11.329632                       # Reads before turning the bus around for writes
system.mem_ctrls2.rdPerTurnAround::stdev    26.490955                       # Reads before turning the bus around for writes
system.mem_ctrls2.rdPerTurnAround::0-127        17105     99.97%     99.97% # Reads before turning the bus around for writes
system.mem_ctrls2.rdPerTurnAround::128-255            3      0.02%     99.99% # Reads before turning the bus around for writes
system.mem_ctrls2.rdPerTurnAround::1152-1279            1      0.01%     99.99% # Reads before turning the bus around for writes
system.mem_ctrls2.rdPerTurnAround::2816-2943            1      0.01%    100.00% # Reads before turning the bus around for writes
system.mem_ctrls2.rdPerTurnAround::total        17110                       # Reads before turning the bus around for writes
system.mem_ctrls2.wrPerTurnAround::samples        17110                       # Writes before turning the bus around for reads
system.mem_ctrls2.wrPerTurnAround::mean      7.149211                       # Writes before turning the bus around for reads
system.mem_ctrls2.wrPerTurnAround::gmean     6.490070                       # Writes before turning the bus around for reads
system.mem_ctrls2.wrPerTurnAround::stdev     3.586983                       # Writes before turning the bus around for reads
system.mem_ctrls2.wrPerTurnAround::4-7          12160     71.07%     71.07% # Writes before turning the bus around for reads
system.mem_ctrls2.wrPerTurnAround::8-11          2200     12.86%     83.93% # Writes before turning the bus around for reads
system.mem_ctrls2.wrPerTurnAround::12-15         1642      9.60%     93.52% # Writes before turning the bus around for reads
system.mem_ctrls2.wrPerTurnAround::16-19         1108      6.48%    100.00% # Writes before turning the bus around for reads
system.mem_ctrls2.wrPerTurnAround::total        17110                       # Writes before turning the bus around for reads
system.mem_ctrls2.totQLat                 31097985848                       # Total ticks spent queuing
system.mem_ctrls2.totMemAccLat            34732673348                       # Total ticks spent from burst creation until serviced by the DRAM
system.mem_ctrls2.totBusLat                 969250000                       # Total ticks spent in databus transfers
system.mem_ctrls2.avgQLat                   160422.93                       # Average queueing delay per DRAM burst
system.mem_ctrls2.avgBusLat                   5000.00                       # Average bus latency per DRAM burst
system.mem_ctrls2.avgMemAccLat              179172.93                       # Average memory access latency per DRAM burst
system.mem_ctrls2.avgRdBW                      218.60                       # Average DRAM read bandwidth in MiByte/s
system.mem_ctrls2.avgWrBW                      137.94                       # Average achieved write bandwidth in MiByte/s
system.mem_ctrls2.avgRdBWSys                   218.63                       # Average system read bandwidth in MiByte/s
system.mem_ctrls2.avgWrBWSys                   137.94                       # Average system write bandwidth in MiByte/s
system.mem_ctrls2.peakBW                     12800.00                       # Theoretical peak bandwidth in MiByte/s
system.mem_ctrls2.busUtil                        2.79                       # Data bus utilization in percentage
system.mem_ctrls2.busUtilRead                    1.71                       # Data bus utilization in percentage for reads
system.mem_ctrls2.busUtilWrite                   1.08                       # Data bus utilization in percentage for writes
system.mem_ctrls2.avgRdQLen                      1.57                       # Average read queue length when enqueuing
system.mem_ctrls2.avgWrQLen                      2.93                       # Average write queue length when enqueuing
system.mem_ctrls2.readRowHits                  153476                       # Number of row buffer hits during reads
system.mem_ctrls2.writeRowHits                  85734                       # Number of row buffer hits during writes
system.mem_ctrls2.readRowHitRate                79.17                       # Row buffer hit rate for reads
system.mem_ctrls2.writeRowHitRate               70.09                       # Row buffer hit rate for writes
system.mem_ctrls2.avgGap                    179488.04                       # Average gap between requests
system.mem_ctrls2.pageHitRate                   75.66                       # Row buffer hit rate, read and write combined
system.mem_ctrls2.memoryStateTime::IDLE   11876777500                       # Time in different power states
system.mem_ctrls2.memoryStateTime::REF     1894880000                       # Time in different power states
system.mem_ctrls2.memoryStateTime::PRE_PDN            0                       # Time in different power states
system.mem_ctrls2.memoryStateTime::ACT    42974810250                       # Time in different power states
system.mem_ctrls2.memoryStateTime::ACT_PDN            0                       # Time in different power states
system.mem_ctrls2.actEnergy::0              293562360                       # Energy for activate commands per rank (pJ)
system.mem_ctrls2.actEnergy::1              287983080                       # Energy for activate commands per rank (pJ)
system.mem_ctrls2.preEnergy::0              160177875                       # Energy for precharge commands per rank (pJ)
system.mem_ctrls2.preEnergy::1              157133625                       # Energy for precharge commands per rank (pJ)
system.mem_ctrls2.readEnergy::0             754501800                       # Energy for read commands per rank (pJ)
system.mem_ctrls2.readEnergy::1             756225600                       # Energy for read commands per rank (pJ)
system.mem_ctrls2.writeEnergy::0            396025200                       # Energy for write commands per rank (pJ)
system.mem_ctrls2.writeEnergy::1            396388080                       # Energy for write commands per rank (pJ)
system.mem_ctrls2.refreshEnergy::0         3706385280                       # Energy for refresh commands per rank (pJ)
system.mem_ctrls2.refreshEnergy::1         3706385280                       # Energy for refresh commands per rank (pJ)
system.mem_ctrls2.actBackEnergy::0        21846318750                       # Energy for active background per rank (pJ)
system.mem_ctrls2.actBackEnergy::1        21347259525                       # Energy for active background per rank (pJ)
system.mem_ctrls2.preBackEnergy::0        14884434750                       # Energy for precharge background per rank (pJ)
system.mem_ctrls2.preBackEnergy::1        15322206000                       # Energy for precharge background per rank (pJ)
system.mem_ctrls2.totalEnergy::0          42041406015                       # Total energy per rank (pJ)
system.mem_ctrls2.totalEnergy::1          41973581190                       # Total energy per rank (pJ)
system.mem_ctrls2.averagePower::0          740.864023                       # Core power per rank (mW)
system.mem_ctrls2.averagePower::1          739.668797                       # Core power per rank (mW)
system.mem_ctrls3.bytes_read::ruby.dir_cntrl3     12387200                       # Number of bytes read from this memory
system.mem_ctrls3.bytes_read::total          12387200                       # Number of bytes read from this memory
system.mem_ctrls3.bytes_written::ruby.dir_cntrl3      7826752                       # Number of bytes written to this memory
system.mem_ctrls3.bytes_written::total        7826752                       # Number of bytes written to this memory
system.mem_ctrls3.num_reads::ruby.dir_cntrl3       193550                       # Number of read requests responded to by this memory
system.mem_ctrls3.num_reads::total             193550                       # Number of read requests responded to by this memory
system.mem_ctrls3.num_writes::ruby.dir_cntrl3       122293                       # Number of write requests responded to by this memory
system.mem_ctrls3.num_writes::total            122293                       # Number of write requests responded to by this memory
system.mem_ctrls3.bw_read::ruby.dir_cntrl3    218264425                       # Total read bandwidth from this memory (bytes/s)
system.mem_ctrls3.bw_read::total            218264425                       # Total read bandwidth from this memory (bytes/s)
system.mem_ctrls3.bw_write::ruby.dir_cntrl3    137908609                       # Write bandwidth from this memory (bytes/s)
system.mem_ctrls3.bw_write::total           137908609                       # Write bandwidth from this memory (bytes/s)
system.mem_ctrls3.bw_total::ruby.dir_cntrl3    356173035                       # Total bandwidth to/from this memory (bytes/s)
system.mem_ctrls3.bw_total::total           356173035                       # Total bandwidth to/from this memory (bytes/s)
system.mem_ctrls3.readReqs                     193550                       # Number of read requests accepted
system.mem_ctrls3.writeReqs                    122293                       # Number of write requests accepted
system.mem_ctrls3.readBursts                   193550                       # Number of DRAM read bursts, including those serviced by the write queue
system.mem_ctrls3.writeBursts                  122293                       # Number of DRAM write bursts, including those merged in the write queue
system.mem_ctrls3.bytesReadDRAM              12386368                       # Total number of bytes read from DRAM
system.mem_ctrls3.bytesReadWrQ                    832                       # Total number of bytes read from write queue
system.mem_ctrls3.bytesWritten                7826624                       # Total number of bytes written to DRAM
system.mem_ctrls3.bytesReadSys               12387200                       # Total read bytes from the system interface side
system.mem_ctrls3.bytesWrittenSys             7826752                       # Total written bytes from the system interface side
system.mem_ctrls3.servicedByWrQ                    13                       # Number of DRAM read bursts serviced by the write queue
system.mem_ctrls3.mergedWrBursts                    0                       # Number of DRAM write bursts merged with an existing one
system.mem_ctrls3.neitherReadNorWriteReqs            0                       # Number of requests that are neither read nor write
system.mem_ctrls3.perBankRdBursts::0            11870                       # Per bank write bursts
system.mem_ctrls3.perBankRdBursts::1            11968                       # Per bank write bursts
system.mem_ctrls3.perBankRdBursts::2            11809                       # Per bank write bursts
system.mem_ctrls3.perBankRdBursts::3            12188                       # Per bank write bursts
system.mem_ctrls3.perBankRdBursts::4            11957                       # Per bank write bursts
system.mem_ctrls3.perBankRdBursts::5            12058                       # Per bank write bursts
system.mem_ctrls3.perBankRdBursts::6            12270                       # Per bank write bursts
system.mem_ctrls3.perBankRdBursts::7            12436                       # Per bank write bursts
system.mem_ctrls3.perBankRdBursts::8            12194                       # Per bank write bursts
system.mem_ctrls3.perBankRdBursts::9            12536                       # Per bank write bursts
system.mem_ctrls3.perBankRdBursts::10           12237                       # Per bank write bursts
system.mem_ctrls3.perBankRdBursts::11           12508                       # Per bank write bursts
system.mem_ctrls3.perBankRdBursts::12           12026                       # Per bank write bursts
system.mem_ctrls3.perBankRdBursts::13           11771                       # Per bank write bursts
system.mem_ctrls3.perBankRdBursts::14           12006                       # Per bank write bursts
system.mem_ctrls3.perBankRdBursts::15           11703                       # Per bank write bursts
system.mem_ctrls3.perBankWrBursts::0             7589                       # Per bank write bursts
system.mem_ctrls3.perBankWrBursts::1             7449                       # Per bank write bursts
system.mem_ctrls3.perBankWrBursts::2             7598                       # Per bank write bursts
system.mem_ctrls3.perBankWrBursts::3             7628                       # Per bank write bursts
system.mem_ctrls3.perBankWrBursts::4             7592                       # Per bank write bursts
system.mem_ctrls3.perBankWrBursts::5             7672                       # Per bank write bursts
system.mem_ctrls3.perBankWrBursts::6             7782                       # Per bank write bursts
system.mem_ctrls3.perBankWrBursts::7             7809                       # Per bank write bursts
system.mem_ctrls3.perBankWrBursts::8             7726                       # Per bank write bursts
system.mem_ctrls3.perBankWrBursts::9             7862                       # Per bank write bursts
system.mem_ctrls3.perBankWrBursts::10            7665                       # Per bank write bursts
system.mem_ctrls3.perBankWrBursts::11            7731                       # Per bank write bursts
system.mem_ctrls3.perBankWrBursts::12            7555                       # Per bank write bursts
system.mem_ctrls3.perBankWrBursts::13            7600                       # Per bank write bursts
system.mem_ctrls3.perBankWrBursts::14            7611                       # Per bank write bursts
system.mem_ctrls3.perBankWrBursts::15            7422                       # Per bank write bursts
system.mem_ctrls3.numRdRetry                    53409                       # Number of times read queue was full causing retry
system.mem_ctrls3.numWrRetry                     5788                       # Number of times write queue was full causing retry
system.mem_ctrls3.totGap                  56752138500                       # Total gap between requests
system.mem_ctrls3.readPktSize::0                    0                       # Read request sizes (log2)
system.mem_ctrls3.readPktSize::1                    0                       # Read request sizes (log2)
system.mem_ctrls3.readPktSize::2                    0                       # Read request sizes (log2)
system.mem_ctrls3.readPktSize::3                    0                       # Read request sizes (log2)
system.mem_ctrls3.readPktSize::4                    0                       # Read request sizes (log2)
system.mem_ctrls3.readPktSize::5                    0                       # Read request sizes (log2)
system.mem_ctrls3.readPktSize::6               193550                       # Read request sizes (log2)
system.mem_ctrls3.writePktSize::0                   0                       # Write request sizes (log2)
system.mem_ctrls3.writePktSize::1                   0                       # Write request sizes (log2)
system.mem_ctrls3.writePktSize::2                   0                       # Write request sizes (log2)
system.mem_ctrls3.writePktSize::3                   0                       # Write request sizes (log2)
system.mem_ctrls3.writePktSize::4                   0                       # Write request sizes (log2)
system.mem_ctrls3.writePktSize::5                   0                       # Write request sizes (log2)
system.mem_ctrls3.writePktSize::6              122293                       # Write request sizes (log2)
system.mem_ctrls3.rdQLenPdf::0                  67442                       # What read queue length does an incoming req see
system.mem_ctrls3.rdQLenPdf::1                   1673                       # What read queue length does an incoming req see
system.mem_ctrls3.rdQLenPdf::2                   1399                       # What read queue length does an incoming req see
system.mem_ctrls3.rdQLenPdf::3                   1501                       # What read queue length does an incoming req see
system.mem_ctrls3.rdQLenPdf::4                   1538                       # What read queue length does an incoming req see
system.mem_ctrls3.rdQLenPdf::5                   1789                       # What read queue length does an incoming req see
system.mem_ctrls3.rdQLenPdf::6                   1864                       # What read queue length does an incoming req see
system.mem_ctrls3.rdQLenPdf::7                   2012                       # What read queue length does an incoming req see
system.mem_ctrls3.rdQLenPdf::8                   2098                       # What read queue length does an incoming req see
system.mem_ctrls3.rdQLenPdf::9                   2038                       # What read queue length does an incoming req see
system.mem_ctrls3.rdQLenPdf::10                  2232                       # What read queue length does an incoming req see
system.mem_ctrls3.rdQLenPdf::11                  2199                       # What read queue length does an incoming req see
system.mem_ctrls3.rdQLenPdf::12                  2187                       # What read queue length does an incoming req see
system.mem_ctrls3.rdQLenPdf::13                  2250                       # What read queue length does an incoming req see
system.mem_ctrls3.rdQLenPdf::14                  2220                       # What read queue length does an incoming req see
system.mem_ctrls3.rdQLenPdf::15                  2337                       # What read queue length does an incoming req see
system.mem_ctrls3.rdQLenPdf::16                  2339                       # What read queue length does an incoming req see
system.mem_ctrls3.rdQLenPdf::17                  2453                       # What read queue length does an incoming req see
system.mem_ctrls3.rdQLenPdf::18                  2532                       # What read queue length does an incoming req see
system.mem_ctrls3.rdQLenPdf::19                  2412                       # What read queue length does an incoming req see
system.mem_ctrls3.rdQLenPdf::20                  2499                       # What read queue length does an incoming req see
system.mem_ctrls3.rdQLenPdf::21                  2445                       # What read queue length does an incoming req see
system.mem_ctrls3.rdQLenPdf::22                  2472                       # What read queue length does an incoming req see
system.mem_ctrls3.rdQLenPdf::23                  2554                       # What read queue length does an incoming req see
system.mem_ctrls3.rdQLenPdf::24                  2657                       # What read queue length does an incoming req see
[...]
system.ruby.L2Cache_Controller.ISS.Mem_Data::total       288483                      
system.ruby.L2Cache_Controller.IS.Mem_Data |         447      3.31%      3.31% |         421      3.12%      6.42% |         415      3.07%      9.50% |         405      3.00%     12.49% |         411      3.04%     15.54% |         401      2.97%     18.50% |         414      3.06%     21.57% |         417      3.09%     24.65% |         407      3.01%     27.67% |         417      3.09%     30.75% |         443      3.28%     34.03% |         439      3.25%     37.28% |         451      3.34%     40.62% |         429      3.18%     43.79% |         449      3.32%     47.12% |         441      3.26%     50.38% |         450      3.33%     53.71% |         440      3.26%     56.97% |         434      3.21%     60.18% |         405      3.00%     63.18% |         385      2.85%     66.03% |         409      3.03%     69.05% |         404      2.99%     72.05% |         395      2.92%     74.97% |         427      3.16%     78.13% |         447      3.31%     81.44% |         437      3.23%     84.67% |         401      2.97%     87.64% |         415      3.07%     90.71% |         427      3.16%     93.87% |         426      3.15%     97.02% |         402      2.98%    100.00%
system.ruby.L2Cache_Controller.IS.Mem_Data::total        13511                      
system.ruby.L2Cache_Controller.IM.L1_GETX |           1    100.00%    100.00% |           0      0.00%    100.00% |           0      0.00%    100.00% |           0      0.00%    100.00% |           0      0.00%    100.00% |           0      0.00%    100.00% |           0      0.00%    100.00% |           0      0.00%    100.00% |           0      0.00%    100.00% |           0      0.00%    100.00% |           0      0.00%    100.00% |           0      0.00%    100.00% |           0      0.00%    100.00% |           0      0.00%    100.00% |           0      0.00%    100.00% |           0      0.00%    100.00% |           0      0.00%    100.00% |           0      0.00%    100.00% |           0      0.00%    100.00% |           0      0.00%    100.00% |           0      0.00%    100.00% |           0      0.00%    100.00% |           0      0.00%    100.00% |           0      0.00%    100.00% |           0      0.00%    100.00% |           0      0.00%    100.00% |           0      0.00%    100.00% |           0      0.00%    100.00% |           0      0.00%    100.00% |           0      0.00%    100.00% |           0      0.00%    100.00% |           0      0.00%    100.00%
system.ruby.L2Cache_Controller.IM.L1_GETX::total            1                      
system.ruby.L2Cache_Controller.IM.Mem_Data |       14975      3.14%      3.14% |       14884      3.12%      6.26% |       14889      3.12%      9.39% |       14890      3.12%     12.51% |       14882      3.12%     15.63% |       14890      3.12%     18.76% |       14893      3.12%     21.88% |       14885      3.12%     25.00% |       14894      3.12%     28.13% |       14897      3.13%     31.25% |       14879      3.12%     34.37% |       14902      3.13%     37.50% |       14891      3.12%     40.62% |       14891      3.12%     43.75% |       14886      3.12%     46.87% |       14882      3.12%     49.99% |       14921      3.13%     53.12% |       14895      3.12%     56.25% |       14896      3.12%     59.37% |       14899      3.13%     62.50% |       14913      3.13%     65.63% |       14923      3.13%     68.76% |       14885      3.12%     71.88% |       14897      3.13%     75.01% |       14907      3.13%     78.13% |       14899      3.13%     81.26% |       14901      3.13%     84.38% |       14892      3.12%     87.51% |       14887      3.12%     90.63% |       14883      3.12%     93.75% |       14895      3.12%     96.88% |       14882      3.12%    100.00%
system.ruby.L2Cache_Controller.IM.Mem_Data::total       476685                      
system.ruby.L2Cache_Controller.SS_MB.Exclusive_Unblock |           3      6.12%      6.12% |           6     12.24%     18.37% |           2      4.08%     22.45% |           3      6.12%     28.57% |           0      0.00%     28.57% |           0      0.00%     28.57% |           0      0.00%     28.57% |           0      0.00%     28.57% |           1      2.04%     30.61% |           0      0.00%     30.61% |           0      0.00%     30.61% |           1      2.04%     32.65% |           4      8.16%     40.82% |           0      0.00%     40.82% |           2      4.08%     44.90% |           0      0.00%     44.90% |           1      2.04%     46.94% |           2      4.08%     51.02% |          13     26.53%     77.55% |           3      6.12%     83.67% |           0      0.00%     83.67% |           0      0.00%     83.67% |           0      0.00%     83.67% |           0      0.00%     83.67% |           1      2.04%     85.71% |           0      0.00%     85.71% |           3      6.12%     91.84% |           4      8.16%    100.00% |           0      0.00%    100.00% |           0      0.00%    100.00% |           0      0.00%    100.00% |           0      0.00%    100.00%
system.ruby.L2Cache_Controller.SS_MB.Exclusive_Unblock::total           49                      
system.ruby.L2Cache_Controller.MT_MB.Exclusive_Unblock |       75916      7.22%      7.22% |       32861      3.13%     10.35% |       29495      2.81%     13.16% |       32395      3.08%     16.24% |       29791      2.83%     19.07% |       29677      2.82%     21.90% |       29084      2.77%     24.66% |       29697      2.83%     27.49% |       30401      2.89%     30.38% |       29990      2.85%     33.24% |       32540      3.10%     36.33% |       30867      2.94%     39.27% |       30515      2.90%     42.17% |       30305      2.88%     45.06% |       29597      2.82%     47.87% |       30195      2.87%     50.74% |       31507      3.00%     53.74% |       30314      2.88%     56.63% |       30915      2.94%     59.57% |       31636      3.01%     62.58% |       32126      3.06%     65.63% |       37030      3.52%     69.16% |       31249      2.97%     72.13% |       31249      2.97%     75.10% |       31254      2.97%     78.08% |       31240      2.97%     81.05% |       31172      2.97%     84.02% |       30876      2.94%     86.95% |       32691      3.11%     90.06% |       32157      3.06%     93.12% |       34136      3.25%     96.37% |       38129      3.63%    100.00%
system.ruby.L2Cache_Controller.MT_MB.Exclusive_Unblock::total      1051007                      
system.ruby.L2Cache_Controller.MT_IIB.WB_Data |           1      1.25%      1.25% |           2      2.50%      3.75% |           1      1.25%      5.00% |           3      3.75%      8.75% |           3      3.75%     12.50% |           3      3.75%     16.25% |           4      5.00%     21.25% |           3      3.75%     25.00% |           5      6.25%     31.25% |           3      3.75%     35.00% |           2      2.50%     37.50% |           2      2.50%     40.00% |           3      3.75%     43.75% |           3      3.75%     47.50% |           3      3.75%     51.25% |           3      3.75%     55.00% |           3      3.75%     58.75% |           1      1.25%     60.00% |           2      2.50%     62.50% |           0      0.00%     62.50% |           1      1.25%     63.75% |           0      0.00%     63.75% |           1      1.25%     65.00% |           2      2.50%     67.50% |           3      3.75%     71.25% |           5      6.25%     77.50% |           4      5.00%     82.50% |           5      6.25%     88.75% |           3      3.75%     92.50% |           2      2.50%     95.00% |           2      2.50%     97.50% |           2      2.50%    100.00%
system.ruby.L2Cache_Controller.MT_IIB.WB_Data::total           80                      
system.ruby.L2Cache_Controller.MT_IIB.WB_Data_clean |          25     38.46%     38.46% |           0      0.00%     38.46% |           0      0.00%     38.46% |          13     20.00%     58.46% |           0      0.00%     58.46% |           0      0.00%     58.46% |           0      0.00%     58.46% |           0      0.00%     58.46% |           0      0.00%     58.46% |           0      0.00%     58.46% |           0      0.00%     58.46% |           0      0.00%     58.46% |           0      0.00%     58.46% |           0      0.00%     58.46% |           0      0.00%     58.46% |           0      0.00%     58.46% |          10     15.38%     73.85% |           0      0.00%     73.85% |           0      0.00%     73.85% |          15     23.08%     96.92% |           0      0.00%     96.92% |           0      0.00%     96.92% |           0      0.00%     96.92% |           0      0.00%     96.92% |           0      0.00%     96.92% |           0      0.00%     96.92% |           0      0.00%     96.92% |           2      3.08%    100.00% |           0      0.00%    100.00% |           0      0.00%    100.00% |           0      0.00%    100.00% |           0      0.00%    100.00%
system.ruby.L2Cache_Controller.MT_IIB.WB_Data_clean::total           65                      
system.ruby.L2Cache_Controller.MT_IIB.Unblock |           1     25.00%     25.00% |           0      0.00%     25.00% |           0      0.00%     25.00% |           2     50.00%     75.00% |           0      0.00%     75.00% |           0      0.00%     75.00% |           0      0.00%     75.00% |           0      0.00%     75.00% |           0      0.00%     75.00% |           0      0.00%     75.00% |           0      0.00%     75.00% |           0      0.00%     75.00% |           0      0.00%     75.00% |           0      0.00%     75.00% |           1     25.00%    100.00% |           0      0.00%    100.00% |           0      0.00%    100.00% |           0      0.00%    100.00% |           0      0.00%    100.00% |           0      0.00%    100.00% |           0      0.00%    100.00% |           0      0.00%    100.00% |           0      0.00%    100.00% |           0      0.00%    100.00% |           0      0.00%    100.00% |           0      0.00%    100.00% |           0      0.00%    100.00% |           0      0.00%    100.00% |           0      0.00%    100.00% |           0      0.00%    100.00% |           0      0.00%    100.00% |           0      0.00%    100.00%
system.ruby.L2Cache_Controller.MT_IIB.Unblock::total            4                      
system.ruby.L2Cache_Controller.MT_IB.WB_Data |           0      0.00%      0.00% |           0      0.00%      0.00% |           0      0.00%      0.00% |           0      0.00%      0.00% |           0      0.00%      0.00% |           0      0.00%      0.00% |           0      0.00%      0.00% |           0      0.00%      0.00% |           0      0.00%      0.00% |           0      0.00%      0.00% |           0      0.00%      0.00% |           0      0.00%      0.00% |           0      0.00%      0.00% |           0      0.00%      0.00% |           1    100.00%    100.00% |           0      0.00%    100.00% |           0      0.00%    100.00% |           0      0.00%    100.00% |           0      0.00%    100.00% |           0      0.00%    100.00% |           0      0.00%    100.00% |           0      0.00%    100.00% |           0      0.00%    100.00% |           0      0.00%    100.00% |           0      0.00%    100.00% |           0      0.00%    100.00% |           0      0.00%    100.00% |           0      0.00%    100.00% |           0      0.00%    100.00% |           0      0.00%    100.00% |           0      0.00%    100.00% |           0      0.00%    100.00%
system.ruby.L2Cache_Controller.MT_IB.WB_Data::total            1                      
system.ruby.L2Cache_Controller.MT_IB.WB_Data_clean |           1     33.33%     33.33% |           0      0.00%     33.33% |           0      0.00%     33.33% |           2     66.67%    100.00% |           0      0.00%    100.00% |           0      0.00%    100.00% |           0      0.00%    100.00% |           0      0.00%    100.00% |           0      0.00%    100.00% |           0      0.00%    100.00% |           0      0.00%    100.00% |           0      0.00%    100.00% |           0      0.00%    100.00% |           0      0.00%    100.00% |           0      0.00%    100.00% |           0      0.00%    100.00% |           0      0.00%    100.00% |           0      0.00%    100.00% |           0      0.00%    100.00% |           0      0.00%    100.00% |           0      0.00%    100.00% |           0      0.00%    100.00% |           0      0.00%    100.00% |           0      0.00%    100.00% |           0      0.00%    100.00% |           0      0.00%    100.00% |           0      0.00%    100.00% |           0      0.00%    100.00% |           0      0.00%    100.00% |           0      0.00%    100.00% |           0      0.00%    100.00% |           0      0.00%    100.00%
system.ruby.L2Cache_Controller.MT_IB.WB_Data_clean::total            3                      
system.ruby.L2Cache_Controller.MT_SB.Unblock |          26     17.93%     17.93% |           2      1.38%     19.31% |           1      0.69%     20.00% |          16     11.03%     31.03% |           3      2.07%     33.10% |           3      2.07%     35.17% |           4      2.76%     37.93% |           3      2.07%     40.00% |           5      3.45%     43.45% |           3      2.07%     45.52% |           2      1.38%     46.90% |           2      1.38%     48.28% |           3      2.07%     50.34% |           3      2.07%     52.41% |           3      2.07%     54.48% |           3      2.07%     56.55% |          13      8.97%     65.52% |           1      0.69%     66.21% |           2      1.38%     67.59% |          15     10.34%     77.93% |           1      0.69%     78.62% |           0      0.00%     78.62% |           1      0.69%     79.31% |           2      1.38%     80.69% |           3      2.07%     82.76% |           5      3.45%     86.21% |           4      2.76%     88.97% |           7      4.83%     93.79% |           3      2.07%     95.86% |           2      1.38%     97.24% |           2      1.38%     98.62% |           2      1.38%    100.00%
system.ruby.L2Cache_Controller.MT_SB.Unblock::total          145                      
system.ruby.SimicsNetworkPortInterface_Controller.MessageSend |       75915     18.28%     18.28% |      207660     50.00%     68.28% |       16527      3.98%     72.26% |       17285      4.16%     76.42% |       16410      3.95%     80.37% |       17061      4.11%     84.48% |       16397      3.95%     88.43% |       17370      4.18%     92.61% |       15151      3.65%     96.26% |       15544      3.74%    100.00% |           0      0.00%    100.00% |           0      0.00%    100.00% |           0      0.00%    100.00% |           0      0.00%    100.00% |           0      0.00%    100.00% |           0      0.00%    100.00% |           0      0.00%    100.00% |           0      0.00%    100.00% |           0      0.00%    100.00% |           0      0.00%    100.00% |           0      0.00%    100.00% |           0      0.00%    100.00% |           0      0.00%    100.00% |           0      0.00%    100.00% |           0      0.00%    100.00% |           0      0.00%    100.00% |           0      0.00%    100.00% |           0      0.00%    100.00% |           0      0.00%    100.00% |           0      0.00%    100.00% |           0      0.00%    100.00% |           0      0.00%    100.00%
system.ruby.SimicsNetworkPortInterface_Controller.MessageSend::total       415320                      
system.ruby.SimicsNetworkPortInterface_Controller.MessageRecv |       75915     18.28%     18.28% |      207660     50.00%     68.28% |       16527      3.98%     72.26% |       17285      4.16%     76.42% |       16410      3.95%     80.37% |       17061      4.11%     84.48% |       16397      3.95%     88.43% |       17370      4.18%     92.61% |       15151      3.65%     96.26% |       15544      3.74%    100.00% |           0      0.00%    100.00% |           0      0.00%    100.00% |           0      0.00%    100.00% |           0      0.00%    100.00% |           0      0.00%    100.00% |           0      0.00%    100.00% |           0      0.00%    100.00% |           0      0.00%    100.00% |           0      0.00%    100.00% |           0      0.00%    100.00% |           0      0.00%    100.00% |           0      0.00%    100.00% |           0      0.00%    100.00% |           0      0.00%    100.00% |           0      0.00%    100.00% |           0      0.00%    100.00% |           0      0.00%    100.00% |           0      0.00%    100.00% |           0      0.00%    100.00% |           0      0.00%    100.00% |           0      0.00%    100.00% |           0      0.00%    100.00%
system.ruby.SimicsNetworkPortInterface_Controller.MessageRecv::total       415320                      
system.ruby.SimicsNetworkPortInterface_Controller.A.MessageSend |       75915     18.28%     18.28% |      207660     50.00%     68.28% |       16527      3.98%     72.26% |       17285      4.16%     76.42% |       16410      3.95%     80.37% |       17061      4.11%     84.48% |       16397      3.95%     88.43% |       17370      4.18%     92.61% |       15151      3.65%     96.26% |       15544      3.74%    100.00% |           0      0.00%    100.00% |           0      0.00%    100.00% |           0      0.00%    100.00% |           0      0.00%    100.00% |           0      0.00%    100.00% |           0      0.00%    100.00% |           0      0.00%    100.00% |           0      0.00%    100.00% |           0      0.00%    100.00% |           0      0.00%    100.00% |           0      0.00%    100.00% |           0      0.00%    100.00% |           0      0.00%    100.00% |           0      0.00%    100.00% |           0      0.00%    100.00% |           0      0.00%    100.00% |           0      0.00%    100.00% |           0      0.00%    100.00% |           0      0.00%    100.00% |           0      0.00%    100.00% |           0      0.00%    100.00% |           0      0.00%    100.00%
system.ruby.SimicsNetworkPortInterface_Controller.A.MessageSend::total       415320                      
system.ruby.SimicsNetworkPortInterface_Controller.A.MessageRecv |       75915     18.28%     18.28% |      207660     50.00%     68.28% |       16527      3.98%     72.26% |       17285      4.16%     76.42% |       16410      3.95%     80.37% |       17061      4.11%     84.48% |       16397      3.95%     88.43% |       17370      4.18%     92.61% |       15151      3.65%     96.26% |       15544      3.74%    100.00% |           0      0.00%    100.00% |           0      0.00%    100.00% |           0      0.00%    100.00% |           0      0.00%    100.00% |           0      0.00%    100.00% |           0      0.00%    100.00% |           0      0.00%    100.00% |           0      0.00%    100.00% |           0      0.00%    100.00% |           0      0.00%    100.00% |           0      0.00%    100.00% |           0      0.00%    100.00% |           0      0.00%    100.00% |           0      0.00%    100.00% |           0      0.00%    100.00% |           0      0.00%    100.00% |           0      0.00%    100.00% |           0      0.00%    100.00% |           0      0.00%    100.00% |           0      0.00%    100.00% |           0      0.00%    100.00% |           0      0.00%    100.00%
system.ruby.SimicsNetworkPortInterface_Controller.A.MessageRecv::total       415320                      
system.switch_cpus.kern.inst.arm                    0                       # number of arm instructions executed
system.switch_cpus.kern.inst.quiesce                0                       # number of quiesce instructions executed

---------- End Simulation Statistics   ----------
