
---------- Begin Simulation Statistics ----------
sim_seconds                                  0.161737                       # Number of seconds simulated
sim_ticks                                161736539000                       # Number of ticks simulated
final_tick                               5337904617500                       # Number of ticks from beginning of simulation (restored from checkpoints and never reset)
sim_freq                                 1000000000000                       # Frequency of simulated ticks
host_inst_rate                                  50488                       # Simulator instruction rate (inst/s)
host_op_rate                                    93777                       # Simulator op (including micro ops) rate (op/s)
host_tick_rate                              110101577                       # Simulator tick rate (ticks/s)
host_mem_usage                                4015328                       # Number of bytes of host memory used
host_seconds                                  1468.98                       # Real time elapsed on the host
sim_insts                                    74165918                       # Number of instructions simulated
sim_ops                                     137756635                       # Number of ops (including micro ops) simulated
system.voltage_domain.voltage                       1                       # Voltage in Volts
system.clk_domain.clock                           500                       # Clock period in ticks
system.mem_ctrls0.bytes_read::ruby.dir_cntrl0     25273664                       # Number of bytes read from this memory
system.mem_ctrls0.bytes_read::total          25273664                       # Number of bytes read from this memory
system.mem_ctrls0.bytes_written::ruby.dir_cntrl0     21424960                       # Number of bytes written to this memory
system.mem_ctrls0.bytes_written::total       21424960                       # Number of bytes written to this memory
system.mem_ctrls0.num_reads::ruby.dir_cntrl0       394901                       # Number of read requests responded to by this memory
system.mem_ctrls0.num_reads::total             394901                       # Number of read requests responded to by this memory
system.mem_ctrls0.num_writes::ruby.dir_cntrl0       334765                       # Number of write requests responded to by this memory
system.mem_ctrls0.num_writes::total            334765                       # Number of write requests responded to by this memory
system.mem_ctrls0.bw_read::ruby.dir_cntrl0    156264405                       # Total read bandwidth from this memory (bytes/s)
system.mem_ctrls0.bw_read::total            156264405                       # Total read bandwidth from this memory (bytes/s)
system.mem_ctrls0.bw_write::ruby.dir_cntrl0    132468273                       # Write bandwidth from this memory (bytes/s)
system.mem_ctrls0.bw_write::total           132468273                       # Write bandwidth from this memory (bytes/s)
system.mem_ctrls0.bw_total::ruby.dir_cntrl0    288732678                       # Total bandwidth to/from this memory (bytes/s)
system.mem_ctrls0.bw_total::total           288732678                       # Total bandwidth to/from this memory (bytes/s)
system.mem_ctrls0.readReqs                     394902                       # Number of read requests accepted
system.mem_ctrls0.writeReqs                    334765                       # Number of write requests accepted
system.mem_ctrls0.readBursts                   394902                       # Number of DRAM read bursts, including those serviced by the write queue
system.mem_ctrls0.writeBursts                  334765                       # Number of DRAM write bursts, including those merged in the write queue
system.mem_ctrls0.bytesReadDRAM              25272000                       # Total number of bytes read from DRAM
system.mem_ctrls0.bytesReadWrQ                   1728                       # Total number of bytes read from write queue
system.mem_ctrls0.bytesWritten               21424704                       # Total number of bytes written to DRAM
system.mem_ctrls0.bytesReadSys               25273728                       # Total read bytes from the system interface side
system.mem_ctrls0.bytesWrittenSys            21424960                       # Total written bytes from the system interface side
system.mem_ctrls0.servicedByWrQ                    27                       # Number of DRAM read bursts serviced by the write queue
system.mem_ctrls0.mergedWrBursts                    0                       # Number of DRAM write bursts merged with an existing one
system.mem_ctrls0.neitherReadNorWriteReqs            0                       # Number of requests that are neither read nor write
system.mem_ctrls0.perBankRdBursts::0            24366                       # Per bank write bursts
system.mem_ctrls0.perBankRdBursts::1            25091                       # Per bank write bursts
system.mem_ctrls0.perBankRdBursts::2            24652                       # Per bank write bursts
system.mem_ctrls0.perBankRdBursts::3            24947                       # Per bank write bursts
system.mem_ctrls0.perBankRdBursts::4            24585                       # Per bank write bursts
system.mem_ctrls0.perBankRdBursts::5            24933                       # Per bank write bursts
system.mem_ctrls0.perBankRdBursts::6            24974                       # Per bank write bursts
system.mem_ctrls0.perBankRdBursts::7            24757                       # Per bank write bursts
system.mem_ctrls0.perBankRdBursts::8            24666                       # Per bank write bursts
system.mem_ctrls0.perBankRdBursts::9            24786                       # Per bank write bursts
system.mem_ctrls0.perBankRdBursts::10           24585                       # Per bank write bursts
system.mem_ctrls0.perBankRdBursts::11           25071                       # Per bank write bursts
system.mem_ctrls0.perBankRdBursts::12           24325                       # Per bank write bursts
system.mem_ctrls0.perBankRdBursts::13           24251                       # Per bank write bursts
system.mem_ctrls0.perBankRdBursts::14           24414                       # Per bank write bursts
system.mem_ctrls0.perBankRdBursts::15           24472                       # Per bank write bursts
system.mem_ctrls0.perBankWrBursts::0            20959                       # Per bank write bursts
system.mem_ctrls0.perBankWrBursts::1            20837                       # Per bank write bursts
system.mem_ctrls0.perBankWrBursts::2            20833                       # Per bank write bursts
system.mem_ctrls0.perBankWrBursts::3            21135                       # Per bank write bursts
system.mem_ctrls0.perBankWrBursts::4            20736                       # Per bank write bursts
system.mem_ctrls0.perBankWrBursts::5            21093                       # Per bank write bursts
system.mem_ctrls0.perBankWrBursts::6            21078                       # Per bank write bursts
system.mem_ctrls0.perBankWrBursts::7            21035                       # Per bank write bursts
system.mem_ctrls0.perBankWrBursts::8            21107                       # Per bank write bursts
system.mem_ctrls0.perBankWrBursts::9            20928                       # Per bank write bursts
system.mem_ctrls0.perBankWrBursts::10           20852                       # Per bank write bursts
system.mem_ctrls0.perBankWrBursts::11           20880                       # Per bank write bursts
system.mem_ctrls0.perBankWrBursts::12           20666                       # Per bank write bursts
system.mem_ctrls0.perBankWrBursts::13           20890                       # Per bank write bursts
system.mem_ctrls0.perBankWrBursts::14           20922                       # Per bank write bursts
system.mem_ctrls0.perBankWrBursts::15           20810                       # Per bank write bursts
system.mem_ctrls0.numRdRetry                        0                       # Number of times read queue was full causing retry
system.mem_ctrls0.numWrRetry                      228                       # Number of times write queue was full causing retry
system.mem_ctrls0.totGap                 161736275500                       # Total gap between requests
system.mem_ctrls0.readPktSize::0                    0                       # Read request sizes (log2)
system.mem_ctrls0.readPktSize::1                    0                       # Read request sizes (log2)
system.mem_ctrls0.readPktSize::2                    0                       # Read request sizes (log2)
system.mem_ctrls0.readPktSize::3                    0                       # Read request sizes (log2)
system.mem_ctrls0.readPktSize::4                    0                       # Read request sizes (log2)
system.mem_ctrls0.readPktSize::5                    0                       # Read request sizes (log2)
system.mem_ctrls0.readPktSize::6               394902                       # Read request sizes (log2)
system.mem_ctrls0.writePktSize::0                   0                       # Write request sizes (log2)
system.mem_ctrls0.writePktSize::1                   0                       # Write request sizes (log2)
system.mem_ctrls0.writePktSize::2                   0                       # Write request sizes (log2)
system.mem_ctrls0.writePktSize::3                   0                       # Write request sizes (log2)
system.mem_ctrls0.writePktSize::4                   0                       # Write request sizes (log2)
system.mem_ctrls0.writePktSize::5                   0                       # Write request sizes (log2)
system.mem_ctrls0.writePktSize::6              334765                       # Write request sizes (log2)
system.mem_ctrls0.rdQLenPdf::0                 336288                       # What read queue length does an incoming req see
system.mem_ctrls0.rdQLenPdf::1                  31780                       # What read queue length does an incoming req see
system.mem_ctrls0.rdQLenPdf::2                  13504                       # What read queue length does an incoming req see
system.mem_ctrls0.rdQLenPdf::3                   6469                       # What read queue length does an incoming req see
system.mem_ctrls0.rdQLenPdf::4                   3828                       # What read queue length does an incoming req see
system.mem_ctrls0.rdQLenPdf::5                   1623                       # What read queue length does an incoming req see
system.mem_ctrls0.rdQLenPdf::6                    856                       # What read queue length does an incoming req see
system.mem_ctrls0.rdQLenPdf::7                    370                       # What read queue length does an incoming req see
system.mem_ctrls0.rdQLenPdf::8                    108                       # What read queue length does an incoming req see
system.mem_ctrls0.rdQLenPdf::9                     29                       # What read queue length does an incoming req see
system.mem_ctrls0.rdQLenPdf::10                     9                       # What read queue length does an incoming req see
system.mem_ctrls0.rdQLenPdf::11                     5                       # What read queue length does an incoming req see
system.mem_ctrls0.rdQLenPdf::12                     3                       # What read queue length does an incoming req see
system.mem_ctrls0.rdQLenPdf::13                     2                       # What read queue length does an incoming req see
system.mem_ctrls0.rdQLenPdf::14                     1                       # What read queue length does an incoming req see
system.mem_ctrls0.rdQLenPdf::15                     0                       # What read queue length does an incoming req see
system.mem_ctrls0.rdQLenPdf::16                     0                       # What read queue length does an incoming req see
system.mem_ctrls0.rdQLenPdf::17                     0                       # What read queue length does an incoming req see
system.mem_ctrls0.rdQLenPdf::18                     0                       # What read queue length does an incoming req see
system.mem_ctrls0.rdQLenPdf::19                     0                       # What read queue length does an incoming req see
system.mem_ctrls0.rdQLenPdf::20                     0                       # What read queue length does an incoming req see
system.mem_ctrls0.rdQLenPdf::21                     0                       # What read queue length does an incoming req see
system.mem_ctrls0.rdQLenPdf::22                     0                       # What read queue length does an incoming req see
system.mem_ctrls0.rdQLenPdf::23                     0                       # What read queue length does an incoming req see
system.mem_ctrls0.rdQLenPdf::24                     0                       # What read queue length does an incoming req see
system.mem_ctrls0.rdQLenPdf::25                     0                       # What read queue length does an incoming req see
system.mem_ctrls0.rdQLenPdf::26                     0                       # What read queue length does an incoming req see
system.mem_ctrls0.rdQLenPdf::27                     0                       # What read queue length does an incoming req see
system.mem_ctrls0.rdQLenPdf::28                     0                       # What read queue length does an incoming req see
system.mem_ctrls0.rdQLenPdf::29                     0                       # What read queue length does an incoming req see
system.mem_ctrls0.rdQLenPdf::30                     0                       # What read queue length does an incoming req see
system.mem_ctrls0.rdQLenPdf::31                     0                       # What read queue length does an incoming req see
system.mem_ctrls0.wrQLenPdf::0                  64882                       # What write queue length does an incoming req see
system.mem_ctrls0.wrQLenPdf::1                  66884                       # What write queue length does an incoming req see
system.mem_ctrls0.wrQLenPdf::2                  67032                       # What write queue length does an incoming req see
system.mem_ctrls0.wrQLenPdf::3                  66508                       # What write queue length does an incoming req see
system.mem_ctrls0.wrQLenPdf::4                  66303                       # What write queue length does an incoming req see
system.mem_ctrls0.wrQLenPdf::5                   1610                       # What write queue length does an incoming req see
system.mem_ctrls0.wrQLenPdf::6                    880                       # What write queue length does an incoming req see
system.mem_ctrls0.wrQLenPdf::7                    666                       # What write queue length does an incoming req see
system.mem_ctrls0.bytesPerActivate::samples       188366                       # Bytes accessed per row activation
system.mem_ctrls0.bytesPerActivate::mean   247.903762                       # Bytes accessed per row activation
system.mem_ctrls0.bytesPerActivate::gmean   181.197706                       # Bytes accessed per row activation
system.mem_ctrls0.bytesPerActivate::stdev   211.419380                       # Bytes accessed per row activation
system.mem_ctrls0.bytesPerActivate::0-127        56268     29.87%     29.87% # Bytes accessed per row activation
system.mem_ctrls0.bytesPerActivate::128-255        37610     19.97%     49.84% # Bytes accessed per row activation
system.mem_ctrls0.bytesPerActivate::256-383        73779     39.17%     89.01% # Bytes accessed per row activation
system.mem_ctrls0.bytesPerActivate::384-511         5762      3.06%     92.06% # Bytes accessed per row activation
system.mem_ctrls0.bytesPerActivate::512-639         3047      1.62%     93.68% # Bytes accessed per row activation
system.mem_ctrls0.bytesPerActivate::640-767         2309      1.23%     94.91% # Bytes accessed per row activation
system.mem_ctrls0.bytesPerActivate::768-895         1570      0.83%     95.74% # Bytes accessed per row activation
system.mem_ctrls0.bytesPerActivate::896-1023         1964      1.04%     96.78% # Bytes accessed per row activation
system.mem_ctrls0.bytesPerActivate::1024-1151         6057      3.22%    100.00% # Bytes accessed per row activation
system.mem_ctrls0.bytesPerActivate::total       188366                       # Bytes accessed per row activation
system.mem_ctrls0.rdPerTurnAround::samples        64881                       # Reads before turning the bus around for writes
system.mem_ctrls0.rdPerTurnAround::mean      6.085942                       # Reads before turning the bus around for writes
system.mem_ctrls0.rdPerTurnAround::stdev    16.314981                       # Reads before turning the bus around for writes
system.mem_ctrls0.rdPerTurnAround::0-127        64873     99.99%     99.99% # Reads before turning the bus around for writes
system.mem_ctrls0.rdPerTurnAround::128-255            7      0.01%    100.00% # Reads before turning the bus around for writes
system.mem_ctrls0.rdPerTurnAround::3968-4095            1      0.00%    100.00% # Reads before turning the bus around for writes
system.mem_ctrls0.rdPerTurnAround::total        64881                       # Reads before turning the bus around for writes
system.mem_ctrls0.wrPerTurnAround::samples        64881                       # Writes before turning the bus around for reads
system.mem_ctrls0.wrPerTurnAround::mean      5.159615                       # Writes before turning the bus around for reads
system.mem_ctrls0.wrPerTurnAround::gmean     5.128789                       # Writes before turning the bus around for reads
system.mem_ctrls0.wrPerTurnAround::stdev     0.676483                       # Writes before turning the bus around for reads
system.mem_ctrls0.wrPerTurnAround::4-7          63486     97.85%     97.85% # Writes before turning the bus around for reads
system.mem_ctrls0.wrPerTurnAround::8-11          1319      2.03%     99.88% # Writes before turning the bus around for reads
system.mem_ctrls0.wrPerTurnAround::12-15           75      0.12%    100.00% # Writes before turning the bus around for reads
system.mem_ctrls0.wrPerTurnAround::16-19            1      0.00%    100.00% # Writes before turning the bus around for reads
system.mem_ctrls0.wrPerTurnAround::total        64881                       # Writes before turning the bus around for reads
system.mem_ctrls0.totQLat                  6025104850                       # Total ticks spent queuing
system.mem_ctrls0.totMemAccLat            13429011100                       # Total ticks spent from burst creation until serviced by the DRAM
system.mem_ctrls0.totBusLat                1974375000                       # Total ticks spent in databus transfers
system.mem_ctrls0.avgQLat                    15258.26                       # Average queueing delay per DRAM burst
system.mem_ctrls0.avgBusLat                   5000.00                       # Average bus latency per DRAM burst
system.mem_ctrls0.avgMemAccLat               34008.26                       # Average memory access latency per DRAM burst
system.mem_ctrls0.avgRdBW                      156.25                       # Average DRAM read bandwidth in MiByte/s
system.mem_ctrls0.avgWrBW                      132.47                       # Average achieved write bandwidth in MiByte/s
system.mem_ctrls0.avgRdBWSys                   156.26                       # Average system read bandwidth in MiByte/s
system.mem_ctrls0.avgWrBWSys                   132.47                       # Average system write bandwidth in MiByte/s
system.mem_ctrls0.peakBW                     12800.00                       # Theoretical peak bandwidth in MiByte/s
system.mem_ctrls0.busUtil                        2.26                       # Data bus utilization in percentage
system.mem_ctrls0.busUtilRead                    1.22                       # Data bus utilization in percentage for reads
system.mem_ctrls0.busUtilWrite                   1.03                       # Data bus utilization in percentage for writes
system.mem_ctrls0.avgRdQLen                      1.04                       # Average read queue length when enqueuing
system.mem_ctrls0.avgWrQLen                      2.96                       # Average write queue length when enqueuing
system.mem_ctrls0.readRowHits                  302874                       # Number of row buffer hits during reads
system.mem_ctrls0.writeRowHits                 238395                       # Number of row buffer hits during writes
system.mem_ctrls0.readRowHitRate                76.70                       # Row buffer hit rate for reads
system.mem_ctrls0.writeRowHitRate               71.21                       # Row buffer hit rate for writes
system.mem_ctrls0.avgGap                    221657.65                       # Average gap between requests
system.mem_ctrls0.pageHitRate                   74.18                       # Row buffer hit rate, read and write combined
system.mem_ctrls0.memoryStateTime::IDLE   26613211500                       # Time in different power states
system.mem_ctrls0.memoryStateTime::REF     5400720000                       # Time in different power states
system.mem_ctrls0.memoryStateTime::PRE_PDN            0                       # Time in different power states
system.mem_ctrls0.memoryStateTime::ACT   129722327250                       # Time in different power states
system.mem_ctrls0.memoryStateTime::ACT_PDN            0                       # Time in different power states
system.mem_ctrls0.actEnergy::0              716574600                       # Energy for activate commands per rank (pJ)
system.mem_ctrls0.actEnergy::1              707464800                       # Energy for activate commands per rank (pJ)
system.mem_ctrls0.preEnergy::0              390988125                       # Energy for precharge commands per rank (pJ)
system.mem_ctrls0.preEnergy::1              386017500                       # Energy for precharge commands per rank (pJ)
system.mem_ctrls0.readEnergy::0            1546779000                       # Energy for read commands per rank (pJ)
system.mem_ctrls0.readEnergy::1            1533230400                       # Energy for read commands per rank (pJ)
system.mem_ctrls0.writeEnergy::0           1086734880                       # Energy for write commands per rank (pJ)
system.mem_ctrls0.writeEnergy::1           1082516400                       # Energy for write commands per rank (pJ)
system.mem_ctrls0.refreshEnergy::0        10563808320                       # Energy for refresh commands per rank (pJ)
system.mem_ctrls0.refreshEnergy::1        10563808320                       # Energy for refresh commands per rank (pJ)
system.mem_ctrls0.actBackEnergy::0        66223694115                       # Energy for active background per rank (pJ)
system.mem_ctrls0.actBackEnergy::1        65954720520                       # Energy for active background per rank (pJ)
system.mem_ctrls0.preBackEnergy::0        38950787250                       # Energy for precharge background per rank (pJ)
system.mem_ctrls0.preBackEnergy::1        39186729000                       # Energy for precharge background per rank (pJ)
system.mem_ctrls0.totalEnergy::0         119479366290                       # Total energy per rank (pJ)
system.mem_ctrls0.totalEnergy::1         119414486940                       # Total energy per rank (pJ)
system.mem_ctrls0.averagePower::0          738.729691                       # Core power per rank (mW)
system.mem_ctrls0.averagePower::1          738.328548                       # Core power per rank (mW)
system.mem_ctrls1.bytes_read::ruby.dir_cntrl1     24515456                       # Number of bytes read from this memory
system.mem_ctrls1.bytes_read::total          24515456                       # Number of bytes read from this memory
system.mem_ctrls1.bytes_written::ruby.dir_cntrl1     20687168                       # Number of bytes written to this memory
system.mem_ctrls1.bytes_written::total       20687168                       # Number of bytes written to this memory
system.mem_ctrls1.num_reads::ruby.dir_cntrl1       383054                       # Number of read requests responded to by this memory
system.mem_ctrls1.num_reads::total             383054                       # Number of read requests responded to by this memory
system.mem_ctrls1.num_writes::ruby.dir_cntrl1       323237                       # Number of write requests responded to by this memory
system.mem_ctrls1.num_writes::total            323237                       # Number of write requests responded to by this memory
system.mem_ctrls1.bw_read::ruby.dir_cntrl1    151576485                       # Total read bandwidth from this memory (bytes/s)
system.mem_ctrls1.bw_read::total            151576485                       # Total read bandwidth from this memory (bytes/s)
system.mem_ctrls1.bw_write::ruby.dir_cntrl1    127906583                       # Write bandwidth from this memory (bytes/s)
system.mem_ctrls1.bw_write::total           127906583                       # Write bandwidth from this memory (bytes/s)
system.mem_ctrls1.bw_total::ruby.dir_cntrl1    279483067                       # Total bandwidth to/from this memory (bytes/s)
system.mem_ctrls1.bw_total::total           279483067                       # Total bandwidth to/from this memory (bytes/s)
system.mem_ctrls1.readReqs                     383054                       # Number of read requests accepted
system.mem_ctrls1.writeReqs                    323237                       # Number of write requests accepted
system.mem_ctrls1.readBursts                   383054                       # Number of DRAM read bursts, including those serviced by the write queue
system.mem_ctrls1.writeBursts                  323237                       # Number of DRAM write bursts, including those merged in the write queue
system.mem_ctrls1.bytesReadDRAM              24513728                       # Total number of bytes read from DRAM
system.mem_ctrls1.bytesReadWrQ                   1728                       # Total number of bytes read from write queue
system.mem_ctrls1.bytesWritten               20687040                       # Total number of bytes written to DRAM
system.mem_ctrls1.bytesReadSys               24515456                       # Total read bytes from the system interface side
system.mem_ctrls1.bytesWrittenSys            20687168                       # Total written bytes from the system interface side
system.mem_ctrls1.servicedByWrQ                    27                       # Number of DRAM read bursts serviced by the write queue
system.mem_ctrls1.mergedWrBursts                    0                       # Number of DRAM write bursts merged with an existing one
system.mem_ctrls1.neitherReadNorWriteReqs            0                       # Number of requests that are neither read nor write
system.mem_ctrls1.perBankRdBursts::0            23652                       # Per bank write bursts
system.mem_ctrls1.perBankRdBursts::1            24342                       # Per bank write bursts
system.mem_ctrls1.perBankRdBursts::2            23910                       # Per bank write bursts
system.mem_ctrls1.perBankRdBursts::3            24204                       # Per bank write bursts
system.mem_ctrls1.perBankRdBursts::4            23878                       # Per bank write bursts
system.mem_ctrls1.perBankRdBursts::5            24191                       # Per bank write bursts
system.mem_ctrls1.perBankRdBursts::6            24237                       # Per bank write bursts
system.mem_ctrls1.perBankRdBursts::7            24048                       # Per bank write bursts
system.mem_ctrls1.perBankRdBursts::8            23932                       # Per bank write bursts
system.mem_ctrls1.perBankRdBursts::9            24044                       # Per bank write bursts
system.mem_ctrls1.perBankRdBursts::10           23815                       # Per bank write bursts
system.mem_ctrls1.perBankRdBursts::11           24335                       # Per bank write bursts
system.mem_ctrls1.perBankRdBursts::12           23594                       # Per bank write bursts
system.mem_ctrls1.perBankRdBursts::13           23494                       # Per bank write bursts
system.mem_ctrls1.perBankRdBursts::14           23598                       # Per bank write bursts
system.mem_ctrls1.perBankRdBursts::15           23753                       # Per bank write bursts
system.mem_ctrls1.perBankWrBursts::0            20241                       # Per bank write bursts
system.mem_ctrls1.perBankWrBursts::1            20130                       # Per bank write bursts
system.mem_ctrls1.perBankWrBursts::2            20133                       # Per bank write bursts
system.mem_ctrls1.perBankWrBursts::3            20426                       # Per bank write bursts
system.mem_ctrls1.perBankWrBursts::4            20026                       # Per bank write bursts
system.mem_ctrls1.perBankWrBursts::5            20386                       # Per bank write bursts
system.mem_ctrls1.perBankWrBursts::6            20346                       # Per bank write bursts
system.mem_ctrls1.perBankWrBursts::7            20304                       # Per bank write bursts
system.mem_ctrls1.perBankWrBursts::8            20382                       # Per bank write bursts
system.mem_ctrls1.perBankWrBursts::9            20201                       # Per bank write bursts
system.mem_ctrls1.perBankWrBursts::10           20136                       # Per bank write bursts
system.mem_ctrls1.perBankWrBursts::11           20163                       # Per bank write bursts
system.mem_ctrls1.perBankWrBursts::12           19950                       # Per bank write bursts
system.mem_ctrls1.perBankWrBursts::13           20166                       # Per bank write bursts
system.mem_ctrls1.perBankWrBursts::14           20150                       # Per bank write bursts
system.mem_ctrls1.perBankWrBursts::15           20095                       # Per bank write bursts
system.mem_ctrls1.numRdRetry                        0                       # Number of times read queue was full causing retry
system.mem_ctrls1.numWrRetry                      196                       # Number of times write queue was full causing retry
system.mem_ctrls1.totGap                 161735776500                       # Total gap between requests
system.mem_ctrls1.readPktSize::0                    0                       # Read request sizes (log2)
system.mem_ctrls1.readPktSize::1                    0                       # Read request sizes (log2)
system.mem_ctrls1.readPktSize::2                    0                       # Read request sizes (log2)
system.mem_ctrls1.readPktSize::3                    0                       # Read request sizes (log2)
system.mem_ctrls1.readPktSize::4                    0                       # Read request sizes (log2)
system.mem_ctrls1.readPktSize::5                    0                       # Read request sizes (log2)
system.mem_ctrls1.readPktSize::6               383054                       # Read request sizes (log2)
system.mem_ctrls1.writePktSize::0                   0                       # Write request sizes (log2)
system.mem_ctrls1.writePktSize::1                   0                       # Write request sizes (log2)
system.mem_ctrls1.writePktSize::2                   0                       # Write request sizes (log2)
system.mem_ctrls1.writePktSize::3                   0                       # Write request sizes (log2)
system.mem_ctrls1.writePktSize::4                   0                       # Write request sizes (log2)
system.mem_ctrls1.writePktSize::5                   0                       # Write request sizes (log2)
system.mem_ctrls1.writePktSize::6              323237                       # Write request sizes (log2)
system.mem_ctrls1.rdQLenPdf::0                 333260                       # What read queue length does an incoming req see
system.mem_ctrls1.rdQLenPdf::1                  27496                       # What read queue length does an incoming req see
system.mem_ctrls1.rdQLenPdf::2                  10126                       # What read queue length does an incoming req see
system.mem_ctrls1.rdQLenPdf::3                   5785                       # What read queue length does an incoming req see
system.mem_ctrls1.rdQLenPdf::4                   3580                       # What read queue length does an incoming req see
system.mem_ctrls1.rdQLenPdf::5                   1650                       # What read queue length does an incoming req see
system.mem_ctrls1.rdQLenPdf::6                    700                       # What read queue length does an incoming req see
system.mem_ctrls1.rdQLenPdf::7                    319                       # What read queue length does an incoming req see
system.mem_ctrls1.rdQLenPdf::8                     82                       # What read queue length does an incoming req see
system.mem_ctrls1.rdQLenPdf::9                     21                       # What read queue length does an incoming req see
system.mem_ctrls1.rdQLenPdf::10                     4                       # What read queue length does an incoming req see
system.mem_ctrls1.rdQLenPdf::11                     4                       # What read queue length does an incoming req see
system.mem_ctrls1.rdQLenPdf::12                     0                       # What read queue length does an incoming req see
system.mem_ctrls1.rdQLenPdf::13                     0                       # What read queue length does an incoming req see
system.mem_ctrls1.rdQLenPdf::14                     0                       # What read queue length does an incoming req see
system.mem_ctrls1.rdQLenPdf::15                     0                       # What read queue length does an incoming req see
system.mem_ctrls1.rdQLenPdf::16                     0                       # What read queue length does an incoming req see
system.mem_ctrls1.rdQLenPdf::17                     0                       # What read queue length does an incoming req see
system.mem_ctrls1.rdQLenPdf::18                     0                       # What read queue length does an incoming req see
system.mem_ctrls1.rdQLenPdf::19                     0                       # What read queue length does an incoming req see
system.mem_ctrls1.rdQLenPdf::20                     0                       # What read queue length does an incoming req see
system.mem_ctrls1.rdQLenPdf::21                     0                       # What read queue length does an incoming req see
system.mem_ctrls1.rdQLenPdf::22                     0                       # What read queue length does an incoming req see
system.mem_ctrls1.rdQLenPdf::23                     0                       # What read queue length does an incoming req see
system.mem_ctrls1.rdQLenPdf::24                     0                       # What read queue length does an incoming req see
system.mem_ctrls1.rdQLenPdf::25                     0                       # What read queue length does an incoming req see
system.mem_ctrls1.rdQLenPdf::26                     0                       # What read queue length does an incoming req see
system.mem_ctrls1.rdQLenPdf::27                     0                       # What read queue length does an incoming req see
system.mem_ctrls1.rdQLenPdf::28                     0                       # What read queue length does an incoming req see
system.mem_ctrls1.rdQLenPdf::29                     0                       # What read queue length does an incoming req see
system.mem_ctrls1.rdQLenPdf::30                     0                       # What read queue length does an incoming req see
system.mem_ctrls1.rdQLenPdf::31                     0                       # What read queue length does an incoming req see
system.mem_ctrls1.wrQLenPdf::0                  62966                       # What write queue length does an incoming req see
system.mem_ctrls1.wrQLenPdf::1                  64446                       # What write queue length does an incoming req see
system.mem_ctrls1.wrQLenPdf::2                  64419                       # What write queue length does an incoming req see
system.mem_ctrls1.wrQLenPdf::3                  64422                       # What write queue length does an incoming req see
system.mem_ctrls1.wrQLenPdf::4                  64294                       # What write queue length does an incoming req see
system.mem_ctrls1.wrQLenPdf::5                   1304                       # What write queue length does an incoming req see
system.mem_ctrls1.wrQLenPdf::6                    773                       # What write queue length does an incoming req see
system.mem_ctrls1.wrQLenPdf::7                    613                       # What write queue length does an incoming req see
system.mem_ctrls1.bytesPerActivate::samples       162518                       # Bytes accessed per row activation
system.mem_ctrls1.bytesPerActivate::mean   278.126977                       # Bytes accessed per row activation
system.mem_ctrls1.bytesPerActivate::gmean   212.605028                       # Bytes accessed per row activation
system.mem_ctrls1.bytesPerActivate::stdev   216.550375                       # Bytes accessed per row activation
system.mem_ctrls1.bytesPerActivate::0-127        32598     20.06%     20.06% # Bytes accessed per row activation
system.mem_ctrls1.bytesPerActivate::128-255        34919     21.49%     41.54% # Bytes accessed per row activation
system.mem_ctrls1.bytesPerActivate::256-383        73961     45.51%     87.05% # Bytes accessed per row activation
system.mem_ctrls1.bytesPerActivate::384-511         5737      3.53%     90.58% # Bytes accessed per row activation
system.mem_ctrls1.bytesPerActivate::512-639         3035      1.87%     92.45% # Bytes accessed per row activation
system.mem_ctrls1.bytesPerActivate::640-767         2245      1.38%     93.83% # Bytes accessed per row activation
system.mem_ctrls1.bytesPerActivate::768-895         1735      1.07%     94.90% # Bytes accessed per row activation
system.mem_ctrls1.bytesPerActivate::896-1023         1614      0.99%     95.89% # Bytes accessed per row activation
system.mem_ctrls1.bytesPerActivate::1024-1151         6674      4.11%    100.00% # Bytes accessed per row activation
system.mem_ctrls1.bytesPerActivate::total       162518                       # Bytes accessed per row activation
system.mem_ctrls1.rdPerTurnAround::samples        62966                       # Reads before turning the bus around for writes
system.mem_ctrls1.rdPerTurnAround::mean      6.082886                       # Reads before turning the bus around for writes
system.mem_ctrls1.rdPerTurnAround::stdev    13.269942                       # Reads before turning the bus around for writes
system.mem_ctrls1.rdPerTurnAround::0-127        62960     99.99%     99.99% # Reads before turning the bus around for writes
system.mem_ctrls1.rdPerTurnAround::128-255            4      0.01%    100.00% # Reads before turning the bus around for writes
system.mem_ctrls1.rdPerTurnAround::1152-1279            1      0.00%    100.00% # Reads before turning the bus around for writes
system.mem_ctrls1.rdPerTurnAround::2816-2943            1      0.00%    100.00% # Reads before turning the bus around for writes
system.mem_ctrls1.rdPerTurnAround::total        62966                       # Reads before turning the bus around for writes
system.mem_ctrls1.wrPerTurnAround::samples        62966                       # Writes before turning the bus around for reads
system.mem_ctrls1.wrPerTurnAround::mean      5.133485                       # Writes before turning the bus around for reads
system.mem_ctrls1.wrPerTurnAround::gmean     5.106413                       # Writes before turning the bus around for reads
system.mem_ctrls1.wrPerTurnAround::stdev     0.635250                       # Writes before turning the bus around for reads
system.mem_ctrls1.wrPerTurnAround::4-7          61712     98.01%     98.01% # Writes before turning the bus around for reads
system.mem_ctrls1.wrPerTurnAround::8-11          1201      1.91%     99.92% # Writes before turning the bus around for reads
system.mem_ctrls1.wrPerTurnAround::12-15           52      0.08%    100.00% # Writes before turning the bus around for reads
system.mem_ctrls1.wrPerTurnAround::16-19            1      0.00%    100.00% # Writes before turning the bus around for reads
system.mem_ctrls1.wrPerTurnAround::total        62966                       # Writes before turning the bus around for reads
system.mem_ctrls1.totQLat                  5339851119                       # Total ticks spent queuing
system.mem_ctrls1.totMemAccLat            12521607369                       # Total ticks spent from burst creation until serviced by the DRAM
system.mem_ctrls1.totBusLat                1915135000                       # Total ticks spent in databus transfers
system.mem_ctrls1.avgQLat                    13941.19                       # Average queueing delay per DRAM burst
system.mem_ctrls1.avgBusLat                   5000.00                       # Average bus latency per DRAM burst
system.mem_ctrls1.avgMemAccLat               32691.19                       # Average memory access latency per DRAM burst
system.mem_ctrls1.avgRdBW                      151.57                       # Average DRAM read bandwidth in MiByte/s
system.mem_ctrls1.avgWrBW                      127.91                       # Average achieved write bandwidth in MiByte/s
system.mem_ctrls1.avgRdBWSys                   151.58                       # Average system read bandwidth in MiByte/s
system.mem_ctrls1.avgWrBWSys                   127.91                       # Average system write bandwidth in MiByte/s
system.mem_ctrls1.peakBW                     12800.00                       # Theoretical peak bandwidth in MiByte/s
system.mem_ctrls1.busUtil                        2.18                       # Data bus utilization in percentage
system.mem_ctrls1.busUtilRead                    1.18                       # Data bus utilization in percentage for reads
system.mem_ctrls1.busUtilWrite                   1.00                       # Data bus utilization in percentage for writes
system.mem_ctrls1.avgRdQLen                      1.03                       # Average read queue length when enqueuing
system.mem_ctrls1.avgWrQLen                      2.97                       # Average write queue length when enqueuing
system.mem_ctrls1.readRowHits                  300898                       # Number of row buffer hits during reads
system.mem_ctrls1.writeRowHits                 242845                       # Number of row buffer hits during writes
system.mem_ctrls1.readRowHitRate                78.56                       # Row buffer hit rate for reads
system.mem_ctrls1.writeRowHitRate               75.13                       # Row buffer hit rate for writes
system.mem_ctrls1.avgGap                    228993.12                       # Average gap between requests
system.mem_ctrls1.pageHitRate                   76.99                       # Row buffer hit rate, read and write combined
system.mem_ctrls1.memoryStateTime::IDLE   27091482500                       # Time in different power states
system.mem_ctrls1.memoryStateTime::REF     5400720000                       # Time in different power states
system.mem_ctrls1.memoryStateTime::PRE_PDN            0                       # Time in different power states
system.mem_ctrls1.memoryStateTime::ACT   129244190500                       # Time in different power states
system.mem_ctrls1.memoryStateTime::ACT_PDN            0                       # Time in different power states
system.mem_ctrls1.actEnergy::0              619783920                       # Energy for activate commands per rank (pJ)
system.mem_ctrls1.actEnergy::1              608852160                       # Energy for activate commands per rank (pJ)
system.mem_ctrls1.preEnergy::0              338175750                       # Energy for precharge commands per rank (pJ)
system.mem_ctrls1.preEnergy::1              332211000                       # Energy for precharge commands per rank (pJ)
system.mem_ctrls1.readEnergy::0            1501203600                       # Energy for read commands per rank (pJ)
system.mem_ctrls1.readEnergy::1            1486391400                       # Energy for read commands per rank (pJ)
system.mem_ctrls1.writeEnergy::0           1049708160                       # Energy for write commands per rank (pJ)
system.mem_ctrls1.writeEnergy::1           1044854640                       # Energy for write commands per rank (pJ)
system.mem_ctrls1.refreshEnergy::0        10563808320                       # Energy for refresh commands per rank (pJ)
system.mem_ctrls1.refreshEnergy::1        10563808320                       # Energy for refresh commands per rank (pJ)
system.mem_ctrls1.actBackEnergy::0        65159242200                       # Energy for active background per rank (pJ)
system.mem_ctrls1.actBackEnergy::1        64646500410                       # Energy for active background per rank (pJ)
system.mem_ctrls1.preBackEnergy::0        39884517000                       # Energy for precharge background per rank (pJ)
system.mem_ctrls1.preBackEnergy::1        40334290500                       # Energy for precharge background per rank (pJ)
system.mem_ctrls1.totalEnergy::0         119116438950                       # Total energy per rank (pJ)
system.mem_ctrls1.totalEnergy::1         119016908430                       # Total energy per rank (pJ)
system.mem_ctrls1.averagePower::0          736.485745                       # Core power per rank (mW)
system.mem_ctrls1.averagePower::1          735.870358                       # Core power per rank (mW)
system.mem_ctrls2.bytes_read::ruby.dir_cntrl2     24515776                       # Number of bytes read from this memory
system.mem_ctrls2.bytes_read::total          24515776                       # Number of bytes read from this memory
system.mem_ctrls2.bytes_written::ruby.dir_cntrl2     20689280                       # Number of bytes written to this memory
system.mem_ctrls2.bytes_written::total       20689280                       # Number of bytes written to this memory
system.mem_ctrls2.num_reads::ruby.dir_cntrl2       383059                       # Number of read requests responded to by this memory
system.mem_ctrls2.num_reads::total             383059                       # Number of read requests responded to by this memory
system.mem_ctrls2.num_writes::ruby.dir_cntrl2       323270                       # Number of write requests responded to by this memory
system.mem_ctrls2.num_writes::total            323270                       # Number of write requests responded to by this memory
system.mem_ctrls2.bw_read::ruby.dir_cntrl2    151578463                       # Total read bandwidth from this memory (bytes/s)
system.mem_ctrls2.bw_read::total            151578463                       # Total read bandwidth from this memory (bytes/s)
system.mem_ctrls2.bw_write::ruby.dir_cntrl2    127919641                       # Write bandwidth from this memory (bytes/s)
system.mem_ctrls2.bw_write::total           127919641                       # Write bandwidth from this memory (bytes/s)
system.mem_ctrls2.bw_total::ruby.dir_cntrl2    279498104                       # Total bandwidth to/from this memory (bytes/s)
system.mem_ctrls2.bw_total::total           279498104                       # Total bandwidth to/from this memory (bytes/s)
system.mem_ctrls2.readReqs                     383059                       # Number of read requests accepted
system.mem_ctrls2.writeReqs                    323270                       # Number of write requests accepted
system.mem_ctrls2.readBursts                   383059                       # Number of DRAM read bursts, including those serviced by the write queue
system.mem_ctrls2.writeBursts                  323270                       # Number of DRAM write bursts, including those merged in the write queue
system.mem_ctrls2.bytesReadDRAM              24514624                       # Total number of bytes read from DRAM
system.mem_ctrls2.bytesReadWrQ                   1152                       # Total number of bytes read from write queue
system.mem_ctrls2.bytesWritten               20689280                       # Total number of bytes written to DRAM
system.mem_ctrls2.bytesReadSys               24515776                       # Total read bytes from the system interface side
system.mem_ctrls2.bytesWrittenSys            20689280                       # Total written bytes from the system interface side
system.mem_ctrls2.servicedByWrQ                    18                       # Number of DRAM read bursts serviced by the write queue
system.mem_ctrls2.mergedWrBursts                    0                       # Number of DRAM write bursts merged with an existing one
system.mem_ctrls2.neitherReadNorWriteReqs            0                       # Number of requests that are neither read nor write
system.mem_ctrls2.perBankRdBursts::0            23639                       # Per bank write bursts
system.mem_ctrls2.perBankRdBursts::1            24318                       # Per bank write bursts
system.mem_ctrls2.perBankRdBursts::2            23956                       # Per bank write bursts
system.mem_ctrls2.perBankRdBursts::3            24276                       # Per bank write bursts
system.mem_ctrls2.perBankRdBursts::4            23874                       # Per bank write bursts
system.mem_ctrls2.perBankRdBursts::5            24161                       # Per bank write bursts
system.mem_ctrls2.perBankRdBursts::6            24237                       # Per bank write bursts
system.mem_ctrls2.perBankRdBursts::7            24037                       # Per bank write bursts
system.mem_ctrls2.perBankRdBursts::8            23912                       # Per bank write bursts
system.mem_ctrls2.perBankRdBursts::9            24050                       # Per bank write bursts
system.mem_ctrls2.perBankRdBursts::10           23820                       # Per bank write bursts
system.mem_ctrls2.perBankRdBursts::11           24325                       # Per bank write bursts
system.mem_ctrls2.perBankRdBursts::12           23625                       # Per bank write bursts
system.mem_ctrls2.perBankRdBursts::13           23438                       # Per bank write bursts
system.mem_ctrls2.perBankRdBursts::14           23591                       # Per bank write bursts
system.mem_ctrls2.perBankRdBursts::15           23782                       # Per bank write bursts
system.mem_ctrls2.perBankWrBursts::0            20235                       # Per bank write bursts
system.mem_ctrls2.perBankWrBursts::1            20127                       # Per bank write bursts
system.mem_ctrls2.perBankWrBursts::2            20138                       # Per bank write bursts
system.mem_ctrls2.perBankWrBursts::3            20431                       # Per bank write bursts
system.mem_ctrls2.perBankWrBursts::4            20029                       # Per bank write bursts
system.mem_ctrls2.perBankWrBursts::5            20371                       # Per bank write bursts
system.mem_ctrls2.perBankWrBursts::6            20356                       # Per bank write bursts
system.mem_ctrls2.perBankWrBursts::7            20315                       # Per bank write bursts
system.mem_ctrls2.perBankWrBursts::8            20383                       # Per bank write bursts
system.mem_ctrls2.perBankWrBursts::9            20208                       # Per bank write bursts
system.mem_ctrls2.perBankWrBursts::10           20127                       # Per bank write bursts
system.mem_ctrls2.perBankWrBursts::11           20161                       # Per bank write bursts
system.mem_ctrls2.perBankWrBursts::12           19957                       # Per bank write bursts
system.mem_ctrls2.perBankWrBursts::13           20163                       # Per bank write bursts
system.mem_ctrls2.perBankWrBursts::14           20157                       # Per bank write bursts
system.mem_ctrls2.perBankWrBursts::15           20112                       # Per bank write bursts
system.mem_ctrls2.numRdRetry                        0                       # Number of times read queue was full causing retry
system.mem_ctrls2.numWrRetry                      188                       # Number of times write queue was full causing retry
system.mem_ctrls2.totGap                 161735503000                       # Total gap between requests
system.mem_ctrls2.readPktSize::0                    0                       # Read request sizes (log2)
system.mem_ctrls2.readPktSize::1                    0                       # Read request sizes (log2)
system.mem_ctrls2.readPktSize::2                    0                       # Read request sizes (log2)
system.mem_ctrls2.readPktSize::3                    0                       # Read request sizes (log2)
system.mem_ctrls2.readPktSize::4                    0                       # Read request sizes (log2)
system.mem_ctrls2.readPktSize::5                    0                       # Read request sizes (log2)
system.mem_ctrls2.readPktSize::6               383059                       # Read request sizes (log2)
system.mem_ctrls2.writePktSize::0                   0                       # Write request sizes (log2)
system.mem_ctrls2.writePktSize::1                   0                       # Write request sizes (log2)
system.mem_ctrls2.writePktSize::2                   0                       # Write request sizes (log2)
system.mem_ctrls2.writePktSize::3                   0                       # Write request sizes (log2)
system.mem_ctrls2.writePktSize::4                   0                       # Write request sizes (log2)
system.mem_ctrls2.writePktSize::5                   0                       # Write request sizes (log2)
system.mem_ctrls2.writePktSize::6              323270                       # Write request sizes (log2)
system.mem_ctrls2.rdQLenPdf::0                 334177                       # What read queue length does an incoming req see
system.mem_ctrls2.rdQLenPdf::1                  27653                       # What read queue length does an incoming req see
system.mem_ctrls2.rdQLenPdf::2                   9590                       # What read queue length does an incoming req see
system.mem_ctrls2.rdQLenPdf::3                   5574                       # What read queue length does an incoming req see
system.mem_ctrls2.rdQLenPdf::4                   3481                       # What read queue length does an incoming req see
system.mem_ctrls2.rdQLenPdf::5                   1461                       # What read queue length does an incoming req see
system.mem_ctrls2.rdQLenPdf::6                    711                       # What read queue length does an incoming req see
system.mem_ctrls2.rdQLenPdf::7                    311                       # What read queue length does an incoming req see
system.mem_ctrls2.rdQLenPdf::8                     72                       # What read queue length does an incoming req see
system.mem_ctrls2.rdQLenPdf::9                     11                       # What read queue length does an incoming req see
system.mem_ctrls2.rdQLenPdf::10                     0                       # What read queue length does an incoming req see
system.mem_ctrls2.rdQLenPdf::11                     0                       # What read queue length does an incoming req see
system.mem_ctrls2.rdQLenPdf::12                     0                       # What read queue length does an incoming req see
system.mem_ctrls2.rdQLenPdf::13                     0                       # What read queue length does an incoming req see
system.mem_ctrls2.rdQLenPdf::14                     0                       # What read queue length does an incoming req see
system.mem_ctrls2.rdQLenPdf::15                     0                       # What read queue length does an incoming req see
system.mem_ctrls2.rdQLenPdf::16                     0                       # What read queue length does an incoming req see
system.mem_ctrls2.rdQLenPdf::17                     0                       # What read queue length does an incoming req see
system.mem_ctrls2.rdQLenPdf::18                     0                       # What read queue length does an incoming req see
system.mem_ctrls2.rdQLenPdf::19                     0                       # What read queue length does an incoming req see
system.mem_ctrls2.rdQLenPdf::20                     0                       # What read queue length does an incoming req see
system.mem_ctrls2.rdQLenPdf::21                     0                       # What read queue length does an incoming req see
system.mem_ctrls2.rdQLenPdf::22                     0                       # What read queue length does an incoming req see
system.mem_ctrls2.rdQLenPdf::23                     0                       # What read queue length does an incoming req see
system.mem_ctrls2.rdQLenPdf::24                     0                       # What read queue length does an incoming req see
system.mem_ctrls2.rdQLenPdf::25                     0                       # What read queue length does an incoming req see
system.mem_ctrls2.rdQLenPdf::26                     0                       # What read queue length does an incoming req see
system.mem_ctrls2.rdQLenPdf::27                     0                       # What read queue length does an incoming req see
system.mem_ctrls2.rdQLenPdf::28                     0                       # What read queue length does an incoming req see
system.mem_ctrls2.rdQLenPdf::29                     0                       # What read queue length does an incoming req see
system.mem_ctrls2.rdQLenPdf::30                     0                       # What read queue length does an incoming req see
system.mem_ctrls2.rdQLenPdf::31                     0                       # What read queue length does an incoming req see
system.mem_ctrls2.wrQLenPdf::0                  63027                       # What write queue length does an incoming req see
system.mem_ctrls2.wrQLenPdf::1                  64592                       # What write queue length does an incoming req see
system.mem_ctrls2.wrQLenPdf::2                  64457                       # What write queue length does an incoming req see
system.mem_ctrls2.wrQLenPdf::3                  64247                       # What write queue length does an incoming req see
system.mem_ctrls2.wrQLenPdf::4                  64237                       # What write queue length does an incoming req see
system.mem_ctrls2.wrQLenPdf::5                   1374                       # What write queue length does an incoming req see
system.mem_ctrls2.wrQLenPdf::6                    755                       # What write queue length does an incoming req see
system.mem_ctrls2.wrQLenPdf::7                    581                       # What write queue length does an incoming req see
system.mem_ctrls2.bytesPerActivate::samples       162500                       # Bytes accessed per row activation
system.mem_ctrls2.bytesPerActivate::mean   278.177871                       # Bytes accessed per row activation
system.mem_ctrls2.bytesPerActivate::gmean   212.786611                       # Bytes accessed per row activation
system.mem_ctrls2.bytesPerActivate::stdev   216.325827                       # Bytes accessed per row activation
system.mem_ctrls2.bytesPerActivate::0-127        32642     20.09%     20.09% # Bytes accessed per row activation
system.mem_ctrls2.bytesPerActivate::128-255        34233     21.07%     41.15% # Bytes accessed per row activation
system.mem_ctrls2.bytesPerActivate::256-383        74593     45.90%     87.06% # Bytes accessed per row activation
system.mem_ctrls2.bytesPerActivate::384-511         5763      3.55%     90.60% # Bytes accessed per row activation
system.mem_ctrls2.bytesPerActivate::512-639         3053      1.88%     92.48% # Bytes accessed per row activation
system.mem_ctrls2.bytesPerActivate::640-767         2221      1.37%     93.85% # Bytes accessed per row activation
system.mem_ctrls2.bytesPerActivate::768-895         1717      1.06%     94.91% # Bytes accessed per row activation
system.mem_ctrls2.bytesPerActivate::896-1023         1551      0.95%     95.86% # Bytes accessed per row activation
system.mem_ctrls2.bytesPerActivate::1024-1151         6727      4.14%    100.00% # Bytes accessed per row activation
system.mem_ctrls2.bytesPerActivate::total       162500                       # Bytes accessed per row activation
system.mem_ctrls2.rdPerTurnAround::samples        63027                       # Reads before turning the bus around for writes
system.mem_ctrls2.rdPerTurnAround::mean      6.077395                       # Reads before turning the bus around for writes
system.mem_ctrls2.rdPerTurnAround::stdev    13.307196                       # Reads before turning the bus around for writes
system.mem_ctrls2.rdPerTurnAround::0-127        63021     99.99%     99.99% # Reads before turning the bus around for writes
system.mem_ctrls2.rdPerTurnAround::128-255            4      0.01%    100.00% # Reads before turning the bus around for writes
system.mem_ctrls2.rdPerTurnAround::1152-1279            1      0.00%    100.00% # Reads before turning the bus around for writes
system.mem_ctrls2.rdPerTurnAround::2816-2943            1      0.00%    100.00% # Reads before turning the bus around for writes
system.mem_ctrls2.rdPerTurnAround::total        63027                       # Reads before turning the bus around for writes
system.mem_ctrls2.wrPerTurnAround::samples        63027                       # Writes before turning the bus around for reads
system.mem_ctrls2.wrPerTurnAround::mean      5.129072                       # Writes before turning the bus around for reads
system.mem_ctrls2.wrPerTurnAround::gmean     5.103510                       # Writes before turning the bus around for reads
system.mem_ctrls2.wrPerTurnAround::stdev     0.612764                       # Writes before turning the bus around for reads
system.mem_ctrls2.wrPerTurnAround::4-5          59160     93.86%     93.86% # Writes before turning the bus around for reads
system.mem_ctrls2.wrPerTurnAround::6-7           2678      4.25%     98.11% # Writes before turning the bus around for reads
system.mem_ctrls2.wrPerTurnAround::8-9            909      1.44%     99.56% # Writes before turning the bus around for reads
system.mem_ctrls2.wrPerTurnAround::10-11          240      0.38%     99.94% # Writes before turning the bus around for reads
system.mem_ctrls2.wrPerTurnAround::12-13           37      0.06%    100.00% # Writes before turning the bus around for reads
system.mem_ctrls2.wrPerTurnAround::14-15            3      0.00%    100.00% # Writes before turning the bus around for reads
system.mem_ctrls2.wrPerTurnAround::total        63027                       # Writes before turning the bus around for reads
system.mem_ctrls2.totQLat                  5313149889                       # Total ticks spent queuing
system.mem_ctrls2.totMemAccLat            12495168639                       # Total ticks spent from burst creation until serviced by the DRAM
system.mem_ctrls2.totBusLat                1915205000                       # Total ticks spent in databus transfers
system.mem_ctrls2.avgQLat                    13870.97                       # Average queueing delay per DRAM burst
system.mem_ctrls2.avgBusLat                   5000.00                       # Average bus latency per DRAM burst
system.mem_ctrls2.avgMemAccLat               32620.97                       # Average memory access latency per DRAM burst
system.mem_ctrls2.avgRdBW                      151.57                       # Average DRAM read bandwidth in MiByte/s
system.mem_ctrls2.avgWrBW                      127.92                       # Average achieved write bandwidth in MiByte/s
system.mem_ctrls2.avgRdBWSys                   151.58                       # Average system read bandwidth in MiByte/s
system.mem_ctrls2.avgWrBWSys                   127.92                       # Average system write bandwidth in MiByte/s
system.mem_ctrls2.peakBW                     12800.00                       # Theoretical peak bandwidth in MiByte/s
system.mem_ctrls2.busUtil                        2.18                       # Data bus utilization in percentage
system.mem_ctrls2.busUtilRead                    1.18                       # Data bus utilization in percentage for reads
system.mem_ctrls2.busUtilWrite                   1.00                       # Data bus utilization in percentage for writes
system.mem_ctrls2.avgRdQLen                      1.03                       # Average read queue length when enqueuing
system.mem_ctrls2.avgWrQLen                      2.98                       # Average write queue length when enqueuing
system.mem_ctrls2.readRowHits                  300733                       # Number of row buffer hits during reads
system.mem_ctrls2.writeRowHits                 243078                       # Number of row buffer hits during writes
system.mem_ctrls2.readRowHitRate                78.51                       # Row buffer hit rate for reads
system.mem_ctrls2.writeRowHitRate               75.19                       # Row buffer hit rate for writes
system.mem_ctrls2.avgGap                    228980.41                       # Average gap between requests
system.mem_ctrls2.pageHitRate                   76.99                       # Row buffer hit rate, read and write combined
system.mem_ctrls2.memoryStateTime::IDLE   27187812250                       # Time in different power states
system.mem_ctrls2.memoryStateTime::REF     5400720000                       # Time in different power states
system.mem_ctrls2.memoryStateTime::PRE_PDN            0                       # Time in different power states
system.mem_ctrls2.memoryStateTime::ACT   129147726500                       # Time in different power states
system.mem_ctrls2.memoryStateTime::ACT_PDN            0                       # Time in different power states
system.mem_ctrls2.actEnergy::0              619610040                       # Energy for activate commands per rank (pJ)
system.mem_ctrls2.actEnergy::1              608889960                       # Energy for activate commands per rank (pJ)
system.mem_ctrls2.preEnergy::0              338080875                       # Energy for precharge commands per rank (pJ)
system.mem_ctrls2.preEnergy::1              332231625                       # Energy for precharge commands per rank (pJ)
system.mem_ctrls2.readEnergy::0            1501484400                       # Energy for read commands per rank (pJ)
system.mem_ctrls2.readEnergy::1            1486235400                       # Energy for read commands per rank (pJ)
system.mem_ctrls2.writeEnergy::0           1049772960                       # Energy for write commands per rank (pJ)
system.mem_ctrls2.writeEnergy::1           1045016640                       # Energy for write commands per rank (pJ)
system.mem_ctrls2.refreshEnergy::0        10563808320                       # Energy for refresh commands per rank (pJ)
system.mem_ctrls2.refreshEnergy::1        10563808320                       # Energy for refresh commands per rank (pJ)
system.mem_ctrls2.actBackEnergy::0        64727539875                       # Energy for active background per rank (pJ)
system.mem_ctrls2.actBackEnergy::1        64240855065                       # Energy for active background per rank (pJ)
system.mem_ctrls2.preBackEnergy::0        40263203250                       # Energy for precharge background per rank (pJ)
system.mem_ctrls2.preBackEnergy::1        40690119750                       # Energy for precharge background per rank (pJ)
system.mem_ctrls2.totalEnergy::0         119063499720                       # Total energy per rank (pJ)
system.mem_ctrls2.totalEnergy::1         118967156760                       # Total energy per rank (pJ)
system.mem_ctrls2.averagePower::0          736.158427                       # Core power per rank (mW)
system.mem_ctrls2.averagePower::1          735.562748                       # Core power per rank (mW)
system.mem_ctrls3.bytes_read::ruby.dir_cntrl3     24495424                       # Number of bytes read from this memory
system.mem_ctrls3.bytes_read::total          24495424                       # Number of bytes read from this memory
system.mem_ctrls3.bytes_written::ruby.dir_cntrl3     20686592                       # Number of bytes written to this memory
system.mem_ctrls3.bytes_written::total       20686592                       # Number of bytes written to this memory
system.mem_ctrls3.num_reads::ruby.dir_cntrl3       382741                       # Number of read requests responded to by this memory
system.mem_ctrls3.num_reads::total             382741                       # Number of read requests responded to by this memory
system.mem_ctrls3.num_writes::ruby.dir_cntrl3       323228                       # Number of write requests responded to by this memory
system.mem_ctrls3.num_writes::total            323228                       # Number of write requests responded to by this memory
system.mem_ctrls3.bw_read::ruby.dir_cntrl3    151452629                       # Total read bandwidth from this memory (bytes/s)
system.mem_ctrls3.bw_read::total            151452629                       # Total read bandwidth from this memory (bytes/s)
system.mem_ctrls3.bw_write::ruby.dir_cntrl3    127903021                       # Write bandwidth from this memory (bytes/s)
system.mem_ctrls3.bw_write::total           127903021                       # Write bandwidth from this memory (bytes/s)
system.mem_ctrls3.bw_total::ruby.dir_cntrl3    279355650                       # Total bandwidth to/from this memory (bytes/s)
system.mem_ctrls3.bw_total::total           279355650                       # Total bandwidth to/from this memory (bytes/s)
system.mem_ctrls3.readReqs                     382741                       # Number of read requests accepted
system.mem_ctrls3.writeReqs                    323228                       # Number of write requests accepted
system.mem_ctrls3.readBursts                   382741                       # Number of DRAM read bursts, including those serviced by the write queue
system.mem_ctrls3.writeBursts                  323228                       # Number of DRAM write bursts, including those merged in the write queue
system.mem_ctrls3.bytesReadDRAM              24494784                       # Total number of bytes read from DRAM
system.mem_ctrls3.bytesReadWrQ                    640                       # Total number of bytes read from write queue
system.mem_ctrls3.bytesWritten               20686464                       # Total number of bytes written to DRAM
system.mem_ctrls3.bytesReadSys               24495424                       # Total read bytes from the system interface side
system.mem_ctrls3.bytesWrittenSys            20686592                       # Total written bytes from the system interface side
system.mem_ctrls3.servicedByWrQ                    10                       # Number of DRAM read bursts serviced by the write queue
system.mem_ctrls3.mergedWrBursts                    0                       # Number of DRAM write bursts merged with an existing one
system.mem_ctrls3.neitherReadNorWriteReqs            0                       # Number of requests that are neither read nor write
system.mem_ctrls3.perBankRdBursts::0            23633                       # Per bank write bursts
system.mem_ctrls3.perBankRdBursts::1            24317                       # Per bank write bursts
system.mem_ctrls3.perBankRdBursts::2            23826                       # Per bank write bursts
system.mem_ctrls3.perBankRdBursts::3            24238                       # Per bank write bursts
system.mem_ctrls3.perBankRdBursts::4            23817                       # Per bank write bursts
system.mem_ctrls3.perBankRdBursts::5            24167                       # Per bank write bursts
system.mem_ctrls3.perBankRdBursts::6            24234                       # Per bank write bursts
system.mem_ctrls3.perBankRdBursts::7            24040                       # Per bank write bursts
system.mem_ctrls3.perBankRdBursts::8            23900                       # Per bank write bursts
system.mem_ctrls3.perBankRdBursts::9            24027                       # Per bank write bursts
system.mem_ctrls3.perBankRdBursts::10           23889                       # Per bank write bursts
system.mem_ctrls3.perBankRdBursts::11           24278                       # Per bank write bursts
system.mem_ctrls3.perBankRdBursts::12           23558                       # Per bank write bursts
system.mem_ctrls3.perBankRdBursts::13           23449                       # Per bank write bursts
system.mem_ctrls3.perBankRdBursts::14           23609                       # Per bank write bursts
system.mem_ctrls3.perBankRdBursts::15           23749                       # Per bank write bursts
system.mem_ctrls3.perBankWrBursts::0            20236                       # Per bank write bursts
system.mem_ctrls3.perBankWrBursts::1            20123                       # Per bank write bursts
system.mem_ctrls3.perBankWrBursts::2            20134                       # Per bank write bursts
system.mem_ctrls3.perBankWrBursts::3            20419                       # Per bank write bursts
system.mem_ctrls3.perBankWrBursts::4            20022                       # Per bank write bursts
system.mem_ctrls3.perBankWrBursts::5            20372                       # Per bank write bursts
system.mem_ctrls3.perBankWrBursts::6            20357                       # Per bank write bursts
system.mem_ctrls3.perBankWrBursts::7            20303                       # Per bank write bursts
system.mem_ctrls3.perBankWrBursts::8            20379                       # Per bank write bursts
system.mem_ctrls3.perBankWrBursts::9            20209                       # Per bank write bursts
system.mem_ctrls3.perBankWrBursts::10           20128                       # Per bank write bursts
system.mem_ctrls3.perBankWrBursts::11           20172                       # Per bank write bursts
system.mem_ctrls3.perBankWrBursts::12           19957                       # Per bank write bursts
system.mem_ctrls3.perBankWrBursts::13           20168                       # Per bank write bursts
system.mem_ctrls3.perBankWrBursts::14           20157                       # Per bank write bursts
system.mem_ctrls3.perBankWrBursts::15           20090                       # Per bank write bursts
system.mem_ctrls3.numRdRetry                        0                       # Number of times read queue was full causing retry
system.mem_ctrls3.numWrRetry                      206                       # Number of times write queue was full causing retry
system.mem_ctrls3.totGap                 161735184000                       # Total gap between requests
system.mem_ctrls3.readPktSize::0                    0                       # Read request sizes (log2)
system.mem_ctrls3.readPktSize::1                    0                       # Read request sizes (log2)
system.mem_ctrls3.readPktSize::2                    0                       # Read request sizes (log2)
system.mem_ctrls3.readPktSize::3                    0                       # Read request sizes (log2)
system.mem_ctrls3.readPktSize::4                    0                       # Read request sizes (log2)
system.mem_ctrls3.readPktSize::5                    0                       # Read request sizes (log2)
system.mem_ctrls3.readPktSize::6               382741                       # Read request sizes (log2)
system.mem_ctrls3.writePktSize::0                   0                       # Write request sizes (log2)
system.mem_ctrls3.writePktSize::1                   0                       # Write request sizes (log2)
system.mem_ctrls3.writePktSize::2                   0                       # Write request sizes (log2)
system.mem_ctrls3.writePktSize::3                   0                       # Write request sizes (log2)
system.mem_ctrls3.writePktSize::4                   0                       # Write request sizes (log2)
system.mem_ctrls3.writePktSize::5                   0                       # Write request sizes (log2)
system.mem_ctrls3.writePktSize::6              323228                       # Write request sizes (log2)
system.mem_ctrls3.rdQLenPdf::0                 332383                       # What read queue length does an incoming req see
system.mem_ctrls3.rdQLenPdf::1                  27798                       # What read queue length does an incoming req see
system.mem_ctrls3.rdQLenPdf::2                  10622                       # What read queue length does an incoming req see
system.mem_ctrls3.rdQLenPdf::3                   5651                       # What read queue length does an incoming req see
system.mem_ctrls3.rdQLenPdf::4                   3682                       # What read queue length does an incoming req see
system.mem_ctrls3.rdQLenPdf::5                   1467                       # What read queue length does an incoming req see
system.mem_ctrls3.rdQLenPdf::6                    691                       # What read queue length does an incoming req see
system.mem_ctrls3.rdQLenPdf::7                    342                       # What read queue length does an incoming req see
system.mem_ctrls3.rdQLenPdf::8                     69                       # What read queue length does an incoming req see
system.mem_ctrls3.rdQLenPdf::9                     21                       # What read queue length does an incoming req see
system.mem_ctrls3.rdQLenPdf::10                     5                       # What read queue length does an incoming req see
system.mem_ctrls3.rdQLenPdf::11                     0                       # What read queue length does an incoming req see
system.mem_ctrls3.rdQLenPdf::12                     0                       # What read queue length does an incoming req see
system.mem_ctrls3.rdQLenPdf::13                     0                       # What read queue length does an incoming req see
system.mem_ctrls3.rdQLenPdf::14                     0                       # What read queue length does an incoming req see
system.mem_ctrls3.rdQLenPdf::15                     0                       # What read queue length does an incoming req see
system.mem_ctrls3.rdQLenPdf::16                     0                       # What read queue length does an incoming req see
system.mem_ctrls3.rdQLenPdf::17                     0                       # What read queue length does an incoming req see
system.mem_ctrls3.rdQLenPdf::18                     0                       # What read queue length does an incoming req see
system.mem_ctrls3.rdQLenPdf::19                     0                       # What read queue length does an incoming req see
system.mem_ctrls3.rdQLenPdf::20                     0                       # What read queue length does an incoming req see
system.mem_ctrls3.rdQLenPdf::21                     0                       # What read queue length does an incoming req see
system.mem_ctrls3.rdQLenPdf::22                     0                       # What read queue length does an incoming req see
[...]
system.ruby.L2Cache_Controller.MCT_I.Ack_all::total         1885                      
system.ruby.L2Cache_Controller.I_I.Ack_all |         545      3.24%      3.24% |         472      2.80%      6.04% |         473      2.81%      8.85% |         469      2.79%     11.64% |         513      3.05%     14.69% |         473      2.81%     17.50% |         509      3.02%     20.52% |         533      3.17%     23.69% |         552      3.28%     26.97% |         494      2.94%     29.91% |         541      3.21%     33.12% |         571      3.39%     36.51% |         628      3.73%     40.25% |         572      3.40%     43.64% |         584      3.47%     47.12% |         531      3.16%     50.27% |         540      3.21%     53.48% |         578      3.43%     56.91% |         572      3.40%     60.31% |         510      3.03%     63.34% |         508      3.02%     66.36% |         532      3.16%     69.52% |         493      2.93%     72.45% |         479      2.85%     75.30% |         552      3.28%     78.58% |         601      3.57%     82.15% |         543      3.23%     85.38% |         484      2.88%     88.25% |         495      2.94%     91.19% |         515      3.06%     94.25% |         493      2.93%     97.18% |         474      2.82%    100.00%
system.ruby.L2Cache_Controller.I_I.Ack_all::total        16829                      
system.ruby.L2Cache_Controller.S_I.Ack   |           0      0.00%      0.00% |           0      0.00%      0.00% |           0      0.00%      0.00% |           0      0.00%      0.00% |           0      0.00%      0.00% |           1     50.00%     50.00% |           0      0.00%     50.00% |           0      0.00%     50.00% |           0      0.00%     50.00% |           0      0.00%     50.00% |           0      0.00%     50.00% |           0      0.00%     50.00% |           0      0.00%     50.00% |           0      0.00%     50.00% |           0      0.00%     50.00% |           0      0.00%     50.00% |           0      0.00%     50.00% |           0      0.00%     50.00% |           0      0.00%     50.00% |           0      0.00%     50.00% |           0      0.00%     50.00% |           0      0.00%     50.00% |           0      0.00%     50.00% |           0      0.00%     50.00% |           0      0.00%     50.00% |           0      0.00%     50.00% |           0      0.00%     50.00% |           0      0.00%     50.00% |           1     50.00%    100.00% |           0      0.00%    100.00% |           0      0.00%    100.00% |           0      0.00%    100.00%
system.ruby.L2Cache_Controller.S_I.Ack::total            2                      
system.ruby.L2Cache_Controller.S_I.Ack_all |           0      0.00%      0.00% |           4     28.57%     28.57% |           1      7.14%     35.71% |           1      7.14%     42.86% |           0      0.00%     42.86% |           2     14.29%     57.14% |           0      0.00%     57.14% |           0      0.00%     57.14% |           0      0.00%     57.14% |           1      7.14%     64.29% |           1      7.14%     71.43% |           0      0.00%     71.43% |           0      0.00%     71.43% |           0      0.00%     71.43% |           1      7.14%     78.57% |           0      0.00%     78.57% |           0      0.00%     78.57% |           0      0.00%     78.57% |           1      7.14%     85.71% |           0      0.00%     85.71% |           0      0.00%     85.71% |           0      0.00%     85.71% |           0      0.00%     85.71% |           0      0.00%     85.71% |           1      7.14%     92.86% |           0      0.00%     92.86% |           0      0.00%     92.86% |           0      0.00%     92.86% |           1      7.14%    100.00% |           0      0.00%    100.00% |           0      0.00%    100.00% |           0      0.00%    100.00%
system.ruby.L2Cache_Controller.S_I.Ack_all::total           14                      
system.ruby.L2Cache_Controller.ISS.Mem_Data |       18686      7.92%      7.92% |        7083      3.00%     10.93% |        7095      3.01%     13.94% |        7036      2.98%     16.92% |        7004      2.97%     19.89% |        6993      2.97%     22.86% |        6998      2.97%     25.82% |        6994      2.97%     28.79% |        7033      2.98%     31.77% |        7033      2.98%     34.75% |        7069      3.00%     37.75% |        6990      2.96%     40.72% |        6993      2.97%     43.68% |        6995      2.97%     46.65% |        6999      2.97%     49.62% |        6958      2.95%     52.57% |        6996      2.97%     55.53% |        6974      2.96%     58.49% |        7007      2.97%     61.46% |        6986      2.96%     64.42% |        6985      2.96%     67.39% |        6969      2.96%     70.34% |        6995      2.97%     73.31% |        6988      2.96%     76.27% |        7008      2.97%     79.24% |        7010      2.97%     82.22% |        6985      2.96%     85.18% |        6963      2.95%     88.13% |        7009      2.97%     91.10% |        6984      2.96%     94.06% |        6959      2.95%     97.02% |        7037      2.98%    100.00%
system.ruby.L2Cache_Controller.ISS.Mem_Data::total       235814                      
system.ruby.L2Cache_Controller.IS.Mem_Data |         545      3.23%      3.23% |         474      2.81%      6.05% |         473      2.81%      8.86% |         469      2.78%     11.64% |         513      3.05%     14.69% |         471      2.80%     17.48% |         507      3.01%     20.49% |         533      3.16%     23.65% |         553      3.28%     26.94% |         497      2.95%     29.89% |         540      3.21%     33.09% |         571      3.39%     36.48% |         628      3.73%     40.21% |         572      3.40%     43.60% |         586      3.48%     47.08% |         533      3.16%     50.25% |         542      3.22%     53.46% |         579      3.44%     56.90% |         571      3.39%     60.29% |         514      3.05%     63.34% |         510      3.03%     66.37% |         533      3.16%     69.53% |         491      2.91%     72.45% |         478      2.84%     75.28% |         551      3.27%     78.55% |         602      3.57%     82.13% |         542      3.22%     85.34% |         486      2.88%     88.23% |         498      2.96%     91.19% |         517      3.07%     94.25% |         495      2.94%     97.19% |         473      2.81%    100.00%
system.ruby.L2Cache_Controller.IS.Mem_Data::total        16847                      
system.ruby.L2Cache_Controller.IM.Mem_Data |       40397      3.13%      3.13% |       40331      3.12%      6.25% |       40344      3.12%      9.38% |       40349      3.13%     12.50% |       40353      3.13%     15.63% |       40363      3.13%     18.75% |       40339      3.12%     21.88% |       40336      3.12%     25.00% |       40353      3.13%     28.13% |       40344      3.12%     31.25% |       40329      3.12%     34.38% |       40358      3.13%     37.50% |       40341      3.12%     40.63% |       40338      3.12%     43.75% |       40341      3.12%     46.88% |       40330      3.12%     50.00% |       40352      3.13%     53.13% |       40353      3.13%     56.25% |       40350      3.13%     59.38% |       40345      3.12%     62.50% |       40340      3.12%     65.63% |       40354      3.13%     68.75% |       40339      3.12%     71.88% |       40341      3.12%     75.00% |       40347      3.13%     78.13% |       40345      3.12%     81.25% |       40350      3.13%     84.38% |       40339      3.12%     87.50% |       40337      3.12%     90.63% |       40340      3.12%     93.75% |       40355      3.13%     96.88% |       40334      3.12%    100.00%
system.ruby.L2Cache_Controller.IM.Mem_Data::total      1291067                      
system.ruby.L2Cache_Controller.SS_MB.Exclusive_Unblock |           4      8.89%      8.89% |           6     13.33%     22.22% |           2      4.44%     26.67% |           6     13.33%     40.00% |           1      2.22%     42.22% |           0      0.00%     42.22% |           1      2.22%     44.44% |           0      0.00%     44.44% |           0      0.00%     44.44% |           1      2.22%     46.67% |           1      2.22%     48.89% |           0      0.00%     48.89% |           4      8.89%     57.78% |           0      0.00%     57.78% |           3      6.67%     64.44% |           0      0.00%     64.44% |           0      0.00%     64.44% |           0      0.00%     64.44% |           9     20.00%     84.44% |           0      0.00%     84.44% |           0      0.00%     84.44% |           0      0.00%     84.44% |           0      0.00%     84.44% |           0      0.00%     84.44% |           1      2.22%     86.67% |           2      4.44%     91.11% |           1      2.22%     93.33% |           1      2.22%     95.56% |           0      0.00%     95.56% |           1      2.22%     97.78% |           1      2.22%    100.00% |           0      0.00%    100.00%
system.ruby.L2Cache_Controller.SS_MB.Exclusive_Unblock::total           45                      
system.ruby.L2Cache_Controller.MT_MB.L1_PUTX |           2    100.00%    100.00% |           0      0.00%    100.00% |           0      0.00%    100.00% |           0      0.00%    100.00% |           0      0.00%    100.00% |           0      0.00%    100.00% |           0      0.00%    100.00% |           0      0.00%    100.00% |           0      0.00%    100.00% |           0      0.00%    100.00% |           0      0.00%    100.00% |           0      0.00%    100.00% |           0      0.00%    100.00% |           0      0.00%    100.00% |           0      0.00%    100.00% |           0      0.00%    100.00% |           0      0.00%    100.00% |           0      0.00%    100.00% |           0      0.00%    100.00% |           0      0.00%    100.00% |           0      0.00%    100.00% |           0      0.00%    100.00% |           0      0.00%    100.00% |           0      0.00%    100.00% |           0      0.00%    100.00% |           0      0.00%    100.00% |           0      0.00%    100.00% |           0      0.00%    100.00% |           0      0.00%    100.00% |           0      0.00%    100.00% |           0      0.00%    100.00% |           0      0.00%    100.00%
system.ruby.L2Cache_Controller.MT_MB.L1_PUTX::total            2                      
system.ruby.L2Cache_Controller.MT_MB.Exclusive_Unblock |      172375      8.45%      8.45% |       64262      3.15%     11.60% |       58765      2.88%     14.48% |       58465      2.87%     17.34% |       57803      2.83%     20.18% |       56510      2.77%     22.95% |       55010      2.70%     25.64% |       55302      2.71%     28.35% |       58984      2.89%     31.24% |       57720      2.83%     34.07% |       60647      2.97%     37.04% |       60211      2.95%     40.00% |       56862      2.79%     42.78% |       56796      2.78%     45.57% |       56451      2.77%     48.33% |       56867      2.79%     51.12% |       59170      2.90%     54.02% |       58515      2.87%     56.89% |       59887      2.94%     59.82% |       60879      2.98%     62.81% |       60911      2.99%     65.79% |       63097      3.09%     68.88% |       64329      3.15%     72.04% |       60553      2.97%     75.00% |       60985      2.99%     77.99% |       62476      3.06%     81.06% |       60799      2.98%     84.04% |       61420      3.01%     87.05% |       64096      3.14%     90.19% |       61915      3.03%     93.22% |       70028      3.43%     96.65% |       68279      3.35%    100.00%
system.ruby.L2Cache_Controller.MT_MB.Exclusive_Unblock::total      2040369                      
system.ruby.L2Cache_Controller.MT_IIB.WB_Data |           0      0.00%      0.00% |           0      0.00%      0.00% |           0      0.00%      0.00% |           0      0.00%      0.00% |           0      0.00%      0.00% |           1     50.00%     50.00% |           0      0.00%     50.00% |           0      0.00%     50.00% |           0      0.00%     50.00% |           0      0.00%     50.00% |           0      0.00%     50.00% |           0      0.00%     50.00% |           0      0.00%     50.00% |           0      0.00%     50.00% |           0      0.00%     50.00% |           0      0.00%     50.00% |           0      0.00%     50.00% |           0      0.00%     50.00% |           0      0.00%     50.00% |           0      0.00%     50.00% |           0      0.00%     50.00% |           0      0.00%     50.00% |           0      0.00%     50.00% |           0      0.00%     50.00% |           0      0.00%     50.00% |           0      0.00%     50.00% |           0      0.00%     50.00% |           0      0.00%     50.00% |           1     50.00%    100.00% |           0      0.00%    100.00% |           0      0.00%    100.00% |           0      0.00%    100.00%
system.ruby.L2Cache_Controller.MT_IIB.WB_Data::total            2                      
system.ruby.L2Cache_Controller.MT_SB.Unblock |           0      0.00%      0.00% |           0      0.00%      0.00% |           0      0.00%      0.00% |           0      0.00%      0.00% |           0      0.00%      0.00% |           1     50.00%     50.00% |           0      0.00%     50.00% |           0      0.00%     50.00% |           0      0.00%     50.00% |           0      0.00%     50.00% |           0      0.00%     50.00% |           0      0.00%     50.00% |           0      0.00%     50.00% |           0      0.00%     50.00% |           0      0.00%     50.00% |           0      0.00%     50.00% |           0      0.00%     50.00% |           0      0.00%     50.00% |           0      0.00%     50.00% |           0      0.00%     50.00% |           0      0.00%     50.00% |           0      0.00%     50.00% |           0      0.00%     50.00% |           0      0.00%     50.00% |           0      0.00%     50.00% |           0      0.00%     50.00% |           0      0.00%     50.00% |           0      0.00%     50.00% |           1     50.00%    100.00% |           0      0.00%    100.00% |           0      0.00%    100.00% |           0      0.00%    100.00%
system.ruby.L2Cache_Controller.MT_SB.Unblock::total            2                      
system.ruby.SimicsNetworkPortInterface_Controller.MessageSend |      120317     20.95%     20.95% |      287111     50.00%     70.95% |      166794     29.05%    100.00% |           0      0.00%    100.00% |           0      0.00%    100.00% |           0      0.00%    100.00% |           0      0.00%    100.00% |           0      0.00%    100.00% |           0      0.00%    100.00% |           0      0.00%    100.00% |           0      0.00%    100.00% |           0      0.00%    100.00% |           0      0.00%    100.00% |           0      0.00%    100.00% |           0      0.00%    100.00% |           0      0.00%    100.00% |           0      0.00%    100.00% |           0      0.00%    100.00% |           0      0.00%    100.00% |           0      0.00%    100.00% |           0      0.00%    100.00% |           0      0.00%    100.00% |           0      0.00%    100.00% |           0      0.00%    100.00% |           0      0.00%    100.00% |           0      0.00%    100.00% |           0      0.00%    100.00% |           0      0.00%    100.00% |           0      0.00%    100.00% |           0      0.00%    100.00% |           0      0.00%    100.00% |           0      0.00%    100.00%
system.ruby.SimicsNetworkPortInterface_Controller.MessageSend::total       574222                      
system.ruby.SimicsNetworkPortInterface_Controller.MessageRecv |      120317     20.95%     20.95% |      287111     50.00%     70.95% |      166794     29.05%    100.00% |           0      0.00%    100.00% |           0      0.00%    100.00% |           0      0.00%    100.00% |           0      0.00%    100.00% |           0      0.00%    100.00% |           0      0.00%    100.00% |           0      0.00%    100.00% |           0      0.00%    100.00% |           0      0.00%    100.00% |           0      0.00%    100.00% |           0      0.00%    100.00% |           0      0.00%    100.00% |           0      0.00%    100.00% |           0      0.00%    100.00% |           0      0.00%    100.00% |           0      0.00%    100.00% |           0      0.00%    100.00% |           0      0.00%    100.00% |           0      0.00%    100.00% |           0      0.00%    100.00% |           0      0.00%    100.00% |           0      0.00%    100.00% |           0      0.00%    100.00% |           0      0.00%    100.00% |           0      0.00%    100.00% |           0      0.00%    100.00% |           0      0.00%    100.00% |           0      0.00%    100.00% |           0      0.00%    100.00%
system.ruby.SimicsNetworkPortInterface_Controller.MessageRecv::total       574222                      
system.ruby.SimicsNetworkPortInterface_Controller.A.MessageSend |      120317     20.95%     20.95% |      287111     50.00%     70.95% |      166794     29.05%    100.00% |           0      0.00%    100.00% |           0      0.00%    100.00% |           0      0.00%    100.00% |           0      0.00%    100.00% |           0      0.00%    100.00% |           0      0.00%    100.00% |           0      0.00%    100.00% |           0      0.00%    100.00% |           0      0.00%    100.00% |           0      0.00%    100.00% |           0      0.00%    100.00% |           0      0.00%    100.00% |           0      0.00%    100.00% |           0      0.00%    100.00% |           0      0.00%    100.00% |           0      0.00%    100.00% |           0      0.00%    100.00% |           0      0.00%    100.00% |           0      0.00%    100.00% |           0      0.00%    100.00% |           0      0.00%    100.00% |           0      0.00%    100.00% |           0      0.00%    100.00% |           0      0.00%    100.00% |           0      0.00%    100.00% |           0      0.00%    100.00% |           0      0.00%    100.00% |           0      0.00%    100.00% |           0      0.00%    100.00%
system.ruby.SimicsNetworkPortInterface_Controller.A.MessageSend::total       574222                      
system.ruby.SimicsNetworkPortInterface_Controller.A.MessageRecv |      120317     20.95%     20.95% |      287111     50.00%     70.95% |      166794     29.05%    100.00% |           0      0.00%    100.00% |           0      0.00%    100.00% |           0      0.00%    100.00% |           0      0.00%    100.00% |           0      0.00%    100.00% |           0      0.00%    100.00% |           0      0.00%    100.00% |           0      0.00%    100.00% |           0      0.00%    100.00% |           0      0.00%    100.00% |           0      0.00%    100.00% |           0      0.00%    100.00% |           0      0.00%    100.00% |           0      0.00%    100.00% |           0      0.00%    100.00% |           0      0.00%    100.00% |           0      0.00%    100.00% |           0      0.00%    100.00% |           0      0.00%    100.00% |           0      0.00%    100.00% |           0      0.00%    100.00% |           0      0.00%    100.00% |           0      0.00%    100.00% |           0      0.00%    100.00% |           0      0.00%    100.00% |           0      0.00%    100.00% |           0      0.00%    100.00% |           0      0.00%    100.00% |           0      0.00%    100.00%
system.ruby.SimicsNetworkPortInterface_Controller.A.MessageRecv::total       574222                      
system.switch_cpus.kern.inst.arm                    0                       # number of arm instructions executed
system.switch_cpus.kern.inst.quiesce                0                       # number of quiesce instructions executed

---------- End Simulation Statistics   ----------
