
---------- Begin Simulation Statistics ----------
sim_seconds                                  0.154353                       # Number of seconds simulated
sim_ticks                                154352626500                       # Number of ticks simulated
final_tick                               5330520705000                       # Number of ticks from beginning of simulation (restored from checkpoints and never reset)
sim_freq                                 1000000000000                       # Frequency of simulated ticks
host_inst_rate                                  77247                       # Simulator instruction rate (inst/s)
host_op_rate                                   146789                       # Simulator op (including micro ops) rate (op/s)
host_tick_rate                              182687949                       # Simulator tick rate (ticks/s)
host_mem_usage                                5458392                       # Number of bytes of host memory used
host_seconds                                   844.90                       # Real time elapsed on the host
sim_insts                                    65265542                       # Number of instructions simulated
sim_ops                                     124021665                       # Number of ops (including micro ops) simulated
system.voltage_domain.voltage                       1                       # Voltage in Volts
system.clk_domain.clock                           500                       # Clock period in ticks
system.mem_ctrls0.bytes_read::ruby.dir_cntrl0     25272640                       # Number of bytes read from this memory
system.mem_ctrls0.bytes_read::total          25272640                       # Number of bytes read from this memory
system.mem_ctrls0.bytes_written::ruby.dir_cntrl0     21423744                       # Number of bytes written to this memory
system.mem_ctrls0.bytes_written::total       21423744                       # Number of bytes written to this memory
system.mem_ctrls0.num_reads::ruby.dir_cntrl0       394885                       # Number of read requests responded to by this memory
system.mem_ctrls0.num_reads::total             394885                       # Number of read requests responded to by this memory
system.mem_ctrls0.num_writes::ruby.dir_cntrl0       334746                       # Number of write requests responded to by this memory
system.mem_ctrls0.num_writes::total            334746                       # Number of write requests responded to by this memory
system.mem_ctrls0.bw_read::ruby.dir_cntrl0    163733139                       # Total read bandwidth from this memory (bytes/s)
system.mem_ctrls0.bw_read::total            163733139                       # Total read bandwidth from this memory (bytes/s)
system.mem_ctrls0.bw_write::ruby.dir_cntrl0    138797405                       # Write bandwidth from this memory (bytes/s)
system.mem_ctrls0.bw_write::total           138797405                       # Write bandwidth from this memory (bytes/s)
system.mem_ctrls0.bw_total::ruby.dir_cntrl0    302530544                       # Total bandwidth to/from this memory (bytes/s)
system.mem_ctrls0.bw_total::total           302530544                       # Total bandwidth to/from this memory (bytes/s)
system.mem_ctrls0.readReqs                     394886                       # Number of read requests accepted
system.mem_ctrls0.writeReqs                    334746                       # Number of write requests accepted
system.mem_ctrls0.readBursts                   394886                       # Number of DRAM read bursts, including those serviced by the write queue
system.mem_ctrls0.writeBursts                  334746                       # Number of DRAM write bursts, including those merged in the write queue
system.mem_ctrls0.bytesReadDRAM              25271232                       # Total number of bytes read from DRAM
system.mem_ctrls0.bytesReadWrQ                   1472                       # Total number of bytes read from write queue
system.mem_ctrls0.bytesWritten               21423680                       # Total number of bytes written to DRAM
system.mem_ctrls0.bytesReadSys               25272704                       # Total read bytes from the system interface side
system.mem_ctrls0.bytesWrittenSys            21423744                       # Total written bytes from the system interface side
system.mem_ctrls0.servicedByWrQ                    23                       # Number of DRAM read bursts serviced by the write queue
system.mem_ctrls0.mergedWrBursts                    0                       # Number of DRAM write bursts merged with an existing one
system.mem_ctrls0.neitherReadNorWriteReqs            0                       # Number of requests that are neither read nor write
system.mem_ctrls0.perBankRdBursts::0            24364                       # Per bank write bursts
system.mem_ctrls0.perBankRdBursts::1            25087                       # Per bank write bursts
system.mem_ctrls0.perBankRdBursts::2            24645                       # Per bank write bursts
system.mem_ctrls0.perBankRdBursts::3            24951                       # Per bank write bursts
system.mem_ctrls0.perBankRdBursts::4            24591                       # Per bank write bursts
system.mem_ctrls0.perBankRdBursts::5            24931                       # Per bank write bursts
system.mem_ctrls0.perBankRdBursts::6            24976                       # Per bank write bursts
system.mem_ctrls0.perBankRdBursts::7            24755                       # Per bank write bursts
system.mem_ctrls0.perBankRdBursts::8            24664                       # Per bank write bursts
system.mem_ctrls0.perBankRdBursts::9            24790                       # Per bank write bursts
system.mem_ctrls0.perBankRdBursts::10           24579                       # Per bank write bursts
system.mem_ctrls0.perBankRdBursts::11           25069                       # Per bank write bursts
system.mem_ctrls0.perBankRdBursts::12           24326                       # Per bank write bursts
system.mem_ctrls0.perBankRdBursts::13           24248                       # Per bank write bursts
system.mem_ctrls0.perBankRdBursts::14           24414                       # Per bank write bursts
system.mem_ctrls0.perBankRdBursts::15           24473                       # Per bank write bursts
system.mem_ctrls0.perBankWrBursts::0            20951                       # Per bank write bursts
system.mem_ctrls0.perBankWrBursts::1            20829                       # Per bank write bursts
system.mem_ctrls0.perBankWrBursts::2            20820                       # Per bank write bursts
system.mem_ctrls0.perBankWrBursts::3            21125                       # Per bank write bursts
system.mem_ctrls0.perBankWrBursts::4            20753                       # Per bank write bursts
system.mem_ctrls0.perBankWrBursts::5            21048                       # Per bank write bursts
system.mem_ctrls0.perBankWrBursts::6            21054                       # Per bank write bursts
system.mem_ctrls0.perBankWrBursts::7            21012                       # Per bank write bursts
system.mem_ctrls0.perBankWrBursts::8            21127                       # Per bank write bursts
system.mem_ctrls0.perBankWrBursts::9            20938                       # Per bank write bursts
system.mem_ctrls0.perBankWrBursts::10           20861                       # Per bank write bursts
system.mem_ctrls0.perBankWrBursts::11           20887                       # Per bank write bursts
system.mem_ctrls0.perBankWrBursts::12           20650                       # Per bank write bursts
system.mem_ctrls0.perBankWrBursts::13           20922                       # Per bank write bursts
system.mem_ctrls0.perBankWrBursts::14           20942                       # Per bank write bursts
system.mem_ctrls0.perBankWrBursts::15           20826                       # Per bank write bursts
system.mem_ctrls0.numRdRetry                    37896                       # Number of times read queue was full causing retry
system.mem_ctrls0.numWrRetry                    11137                       # Number of times write queue was full causing retry
system.mem_ctrls0.totGap                 154352363000                       # Total gap between requests
system.mem_ctrls0.readPktSize::0                    0                       # Read request sizes (log2)
system.mem_ctrls0.readPktSize::1                    0                       # Read request sizes (log2)
system.mem_ctrls0.readPktSize::2                    0                       # Read request sizes (log2)
system.mem_ctrls0.readPktSize::3                    0                       # Read request sizes (log2)
system.mem_ctrls0.readPktSize::4                    0                       # Read request sizes (log2)
system.mem_ctrls0.readPktSize::5                    0                       # Read request sizes (log2)
system.mem_ctrls0.readPktSize::6               394886                       # Read request sizes (log2)
system.mem_ctrls0.writePktSize::0                   0                       # Write request sizes (log2)
system.mem_ctrls0.writePktSize::1                   0                       # Write request sizes (log2)
system.mem_ctrls0.writePktSize::2                   0                       # Write request sizes (log2)
system.mem_ctrls0.writePktSize::3                   0                       # Write request sizes (log2)
system.mem_ctrls0.writePktSize::4                   0                       # Write request sizes (log2)
system.mem_ctrls0.writePktSize::5                   0                       # Write request sizes (log2)
system.mem_ctrls0.writePktSize::6              334746                       # Write request sizes (log2)
system.mem_ctrls0.rdQLenPdf::0                 210125                       # What read queue length does an incoming req see
system.mem_ctrls0.rdQLenPdf::1                  13478                       # What read queue length does an incoming req see
system.mem_ctrls0.rdQLenPdf::2                  10965                       # What read queue length does an incoming req see
system.mem_ctrls0.rdQLenPdf::3                   8866                       # What read queue length does an incoming req see
system.mem_ctrls0.rdQLenPdf::4                   9002                       # What read queue length does an incoming req see
system.mem_ctrls0.rdQLenPdf::5                   8668                       # What read queue length does an incoming req see
system.mem_ctrls0.rdQLenPdf::6                   8160                       # What read queue length does an incoming req see
system.mem_ctrls0.rdQLenPdf::7                   7332                       # What read queue length does an incoming req see
system.mem_ctrls0.rdQLenPdf::8                   6496                       # What read queue length does an incoming req see
system.mem_ctrls0.rdQLenPdf::9                   5924                       # What read queue length does an incoming req see
system.mem_ctrls0.rdQLenPdf::10                  5432                       # What read queue length does an incoming req see
system.mem_ctrls0.rdQLenPdf::11                  4948                       # What read queue length does an incoming req see
system.mem_ctrls0.rdQLenPdf::12                  4683                       # What read queue length does an incoming req see
system.mem_ctrls0.rdQLenPdf::13                  4273                       # What read queue length does an incoming req see
system.mem_ctrls0.rdQLenPdf::14                  3914                       # What read queue length does an incoming req see
system.mem_ctrls0.rdQLenPdf::15                  3689                       # What read queue length does an incoming req see
system.mem_ctrls0.rdQLenPdf::16                  3491                       # What read queue length does an incoming req see
system.mem_ctrls0.rdQLenPdf::17                  3221                       # What read queue length does an incoming req see
system.mem_ctrls0.rdQLenPdf::18                  3023                       # What read queue length does an incoming req see
system.mem_ctrls0.rdQLenPdf::19                  2824                       # What read queue length does an incoming req see
system.mem_ctrls0.rdQLenPdf::20                  2681                       # What read queue length does an incoming req see
system.mem_ctrls0.rdQLenPdf::21                  2528                       # What read queue length does an incoming req see
system.mem_ctrls0.rdQLenPdf::22                  2438                       # What read queue length does an incoming req see
system.mem_ctrls0.rdQLenPdf::23                  2428                       # What read queue length does an incoming req see
system.mem_ctrls0.rdQLenPdf::24                  2171                       # What read queue length does an incoming req see
system.mem_ctrls0.rdQLenPdf::25                  2220                       # What read queue length does an incoming req see
system.mem_ctrls0.rdQLenPdf::26                  2186                       # What read queue length does an incoming req see
system.mem_ctrls0.rdQLenPdf::27                  2159                       # What read queue length does an incoming req see
system.mem_ctrls0.rdQLenPdf::28                  2078                       # What read queue length does an incoming req see
system.mem_ctrls0.rdQLenPdf::29                  2109                       # What read queue length does an incoming req see
system.mem_ctrls0.rdQLenPdf::30                  2284                       # What read queue length does an incoming req see
system.mem_ctrls0.rdQLenPdf::31                 41067                       # What read queue length does an incoming req see
system.mem_ctrls0.wrQLenPdf::0                  51263                       # What write queue length does an incoming req see
system.mem_ctrls0.wrQLenPdf::1                  56619                       # What write queue length does an incoming req see
system.mem_ctrls0.wrQLenPdf::2                  58933                       # What write queue length does an incoming req see
system.mem_ctrls0.wrQLenPdf::3                  58804                       # What write queue length does an incoming req see
system.mem_ctrls0.wrQLenPdf::4                  58574                       # What write queue length does an incoming req see
system.mem_ctrls0.wrQLenPdf::5                  13962                       # What write queue length does an incoming req see
system.mem_ctrls0.wrQLenPdf::6                  14536                       # What write queue length does an incoming req see
system.mem_ctrls0.wrQLenPdf::7                  22055                       # What write queue length does an incoming req see
system.mem_ctrls0.bytesPerActivate::samples       218448                       # Bytes accessed per row activation
system.mem_ctrls0.bytesPerActivate::mean   213.753461                       # Bytes accessed per row activation
system.mem_ctrls0.bytesPerActivate::gmean   162.172287                       # Bytes accessed per row activation
system.mem_ctrls0.bytesPerActivate::stdev   167.777873                       # Bytes accessed per row activation
system.mem_ctrls0.bytesPerActivate::0-127        69659     31.89%     31.89% # Bytes accessed per row activation
system.mem_ctrls0.bytesPerActivate::128-255        58484     26.77%     58.66% # Bytes accessed per row activation
system.mem_ctrls0.bytesPerActivate::256-383        68566     31.39%     90.05% # Bytes accessed per row activation
system.mem_ctrls0.bytesPerActivate::384-511         9091      4.16%     94.21% # Bytes accessed per row activation
system.mem_ctrls0.bytesPerActivate::512-639         5530      2.53%     96.74% # Bytes accessed per row activation
system.mem_ctrls0.bytesPerActivate::640-767         2692      1.23%     97.97% # Bytes accessed per row activation
system.mem_ctrls0.bytesPerActivate::768-895         1535      0.70%     98.68% # Bytes accessed per row activation
system.mem_ctrls0.bytesPerActivate::896-1023         1116      0.51%     99.19% # Bytes accessed per row activation
system.mem_ctrls0.bytesPerActivate::1024-1151         1775      0.81%    100.00% # Bytes accessed per row activation
system.mem_ctrls0.bytesPerActivate::total       218448                       # Bytes accessed per row activation
system.mem_ctrls0.rdPerTurnAround::samples        53000                       # Reads before turning the bus around for writes
system.mem_ctrls0.rdPerTurnAround::mean      7.450170                       # Reads before turning the bus around for writes
system.mem_ctrls0.rdPerTurnAround::stdev    18.328506                       # Reads before turning the bus around for writes
system.mem_ctrls0.rdPerTurnAround::0-127        52992     99.98%     99.98% # Reads before turning the bus around for writes
system.mem_ctrls0.rdPerTurnAround::128-255            7      0.01%    100.00% # Reads before turning the bus around for writes
system.mem_ctrls0.rdPerTurnAround::3968-4095            1      0.00%    100.00% # Reads before turning the bus around for writes
system.mem_ctrls0.rdPerTurnAround::total        53000                       # Reads before turning the bus around for writes
system.mem_ctrls0.wrPerTurnAround::samples        53000                       # Writes before turning the bus around for reads
system.mem_ctrls0.wrPerTurnAround::mean      6.315943                       # Writes before turning the bus around for reads
system.mem_ctrls0.wrPerTurnAround::gmean     5.873491                       # Writes before turning the bus around for reads
system.mem_ctrls0.wrPerTurnAround::stdev     2.990777                       # Writes before turning the bus around for reads
system.mem_ctrls0.wrPerTurnAround::4-7          44116     83.24%     83.24% # Writes before turning the bus around for reads
system.mem_ctrls0.wrPerTurnAround::8-11          3868      7.30%     90.54% # Writes before turning the bus around for reads
system.mem_ctrls0.wrPerTurnAround::12-15         2653      5.01%     95.54% # Writes before turning the bus around for reads
system.mem_ctrls0.wrPerTurnAround::16-19         2363      4.46%    100.00% # Writes before turning the bus around for reads
system.mem_ctrls0.wrPerTurnAround::total        53000                       # Writes before turning the bus around for reads
system.mem_ctrls0.totQLat                 39682791123                       # Total ticks spent queuing
system.mem_ctrls0.totMemAccLat            47086472373                       # Total ticks spent from burst creation until serviced by the DRAM
system.mem_ctrls0.totBusLat                1974315000                       # Total ticks spent in databus transfers
system.mem_ctrls0.avgQLat                   100497.62                       # Average queueing delay per DRAM burst
system.mem_ctrls0.avgBusLat                   5000.00                       # Average bus latency per DRAM burst
system.mem_ctrls0.avgMemAccLat              119247.62                       # Average memory access latency per DRAM burst
system.mem_ctrls0.avgRdBW                      163.72                       # Average DRAM read bandwidth in MiByte/s
system.mem_ctrls0.avgWrBW                      138.80                       # Average achieved write bandwidth in MiByte/s
system.mem_ctrls0.avgRdBWSys                   163.73                       # Average system read bandwidth in MiByte/s
system.mem_ctrls0.avgWrBWSys                   138.80                       # Average system write bandwidth in MiByte/s
system.mem_ctrls0.peakBW                     12800.00                       # Theoretical peak bandwidth in MiByte/s
system.mem_ctrls0.busUtil                        2.36                       # Data bus utilization in percentage
system.mem_ctrls0.busUtilRead                    1.28                       # Data bus utilization in percentage for reads
system.mem_ctrls0.busUtilWrite                   1.08                       # Data bus utilization in percentage for writes
system.mem_ctrls0.avgRdQLen                      1.28                       # Average read queue length when enqueuing
system.mem_ctrls0.avgWrQLen                      2.97                       # Average write queue length when enqueuing
system.mem_ctrls0.readRowHits                  290320                       # Number of row buffer hits during reads
system.mem_ctrls0.writeRowHits                 220828                       # Number of row buffer hits during writes
system.mem_ctrls0.readRowHitRate                73.52                       # Row buffer hit rate for reads
system.mem_ctrls0.writeRowHitRate               65.97                       # Row buffer hit rate for writes
system.mem_ctrls0.avgGap                    211548.24                       # Average gap between requests
system.mem_ctrls0.pageHitRate                   70.06                       # Row buffer hit rate, read and write combined
system.mem_ctrls0.memoryStateTime::IDLE   26566088000                       # Time in different power states
system.mem_ctrls0.memoryStateTime::REF     5153980000                       # Time in different power states
system.mem_ctrls0.memoryStateTime::PRE_PDN            0                       # Time in different power states
system.mem_ctrls0.memoryStateTime::ACT   122627068500                       # Time in different power states
system.mem_ctrls0.memoryStateTime::ACT_PDN            0                       # Time in different power states
system.mem_ctrls0.actEnergy::0              829657080                       # Energy for activate commands per rank (pJ)
system.mem_ctrls0.actEnergy::1              821620800                       # Energy for activate commands per rank (pJ)
system.mem_ctrls0.preEnergy::0              452689875                       # Energy for precharge commands per rank (pJ)
system.mem_ctrls0.preEnergy::1              448305000                       # Energy for precharge commands per rank (pJ)
system.mem_ctrls0.readEnergy::0            1546490400                       # Energy for read commands per rank (pJ)
system.mem_ctrls0.readEnergy::1            1533012000                       # Energy for read commands per rank (pJ)
system.mem_ctrls0.writeEnergy::0           1085957280                       # Energy for write commands per rank (pJ)
system.mem_ctrls0.writeEnergy::1           1082911680                       # Energy for write commands per rank (pJ)
system.mem_ctrls0.refreshEnergy::0        10081184880                       # Energy for refresh commands per rank (pJ)
system.mem_ctrls0.refreshEnergy::1        10081184880                       # Energy for refresh commands per rank (pJ)
system.mem_ctrls0.actBackEnergy::0        61478408205                       # Energy for active background per rank (pJ)
system.mem_ctrls0.actBackEnergy::1        61221525165                       # Energy for active background per rank (pJ)
system.mem_ctrls0.preBackEnergy::0        38679845250                       # Energy for precharge background per rank (pJ)
system.mem_ctrls0.preBackEnergy::1        38905181250                       # Energy for precharge background per rank (pJ)
system.mem_ctrls0.totalEnergy::0         114154232970                       # Total energy per rank (pJ)
system.mem_ctrls0.totalEnergy::1         114093740775                       # Total energy per rank (pJ)
system.mem_ctrls0.averagePower::0          739.594177                       # Core power per rank (mW)
system.mem_ctrls0.averagePower::1          739.202254                       # Core power per rank (mW)
system.mem_ctrls1.bytes_read::ruby.dir_cntrl1     24511360                       # Number of bytes read from this memory
system.mem_ctrls1.bytes_read::total          24511360                       # Number of bytes read from this memory
system.mem_ctrls1.bytes_written::ruby.dir_cntrl1     20685888                       # Number of bytes written to this memory
system.mem_ctrls1.bytes_written::total       20685888                       # Number of bytes written to this memory
system.mem_ctrls1.num_reads::ruby.dir_cntrl1       382990                       # Number of read requests responded to by this memory
system.mem_ctrls1.num_reads::total             382990                       # Number of read requests responded to by this memory
system.mem_ctrls1.num_writes::ruby.dir_cntrl1       323217                       # Number of write requests responded to by this memory
system.mem_ctrls1.num_writes::total            323217                       # Number of write requests responded to by this memory
system.mem_ctrls1.bw_read::ruby.dir_cntrl1    158801055                       # Total read bandwidth from this memory (bytes/s)
system.mem_ctrls1.bw_read::total            158801055                       # Total read bandwidth from this memory (bytes/s)
system.mem_ctrls1.bw_write::ruby.dir_cntrl1    134017078                       # Write bandwidth from this memory (bytes/s)
system.mem_ctrls1.bw_write::total           134017078                       # Write bandwidth from this memory (bytes/s)
system.mem_ctrls1.bw_total::ruby.dir_cntrl1    292818134                       # Total bandwidth to/from this memory (bytes/s)
system.mem_ctrls1.bw_total::total           292818134                       # Total bandwidth to/from this memory (bytes/s)
system.mem_ctrls1.readReqs                     382990                       # Number of read requests accepted
system.mem_ctrls1.writeReqs                    323217                       # Number of write requests accepted
system.mem_ctrls1.readBursts                   382990                       # Number of DRAM read bursts, including those serviced by the write queue
system.mem_ctrls1.writeBursts                  323217                       # Number of DRAM write bursts, including those merged in the write queue
system.mem_ctrls1.bytesReadDRAM              24510016                       # Total number of bytes read from DRAM
system.mem_ctrls1.bytesReadWrQ                   1344                       # Total number of bytes read from write queue
system.mem_ctrls1.bytesWritten               20685888                       # Total number of bytes written to DRAM
system.mem_ctrls1.bytesReadSys               24511360                       # Total read bytes from the system interface side
system.mem_ctrls1.bytesWrittenSys            20685888                       # Total written bytes from the system interface side
system.mem_ctrls1.servicedByWrQ                    21                       # Number of DRAM read bursts serviced by the write queue
system.mem_ctrls1.mergedWrBursts                    0                       # Number of DRAM write bursts merged with an existing one
system.mem_ctrls1.neitherReadNorWriteReqs            0                       # Number of requests that are neither read nor write
system.mem_ctrls1.perBankRdBursts::0            23653                       # Per bank write bursts
system.mem_ctrls1.perBankRdBursts::1            24330                       # Per bank write bursts
system.mem_ctrls1.perBankRdBursts::2            23897                       # Per bank write bursts
system.mem_ctrls1.perBankRdBursts::3            24204                       # Per bank write bursts
system.mem_ctrls1.perBankRdBursts::4            23873                       # Per bank write bursts
system.mem_ctrls1.perBankRdBursts::5            24188                       # Per bank write bursts
system.mem_ctrls1.perBankRdBursts::6            24233                       # Per bank write bursts
system.mem_ctrls1.perBankRdBursts::7            24044                       # Per bank write bursts
system.mem_ctrls1.perBankRdBursts::8            23920                       # Per bank write bursts
system.mem_ctrls1.perBankRdBursts::9            24041                       # Per bank write bursts
system.mem_ctrls1.perBankRdBursts::10           23810                       # Per bank write bursts
system.mem_ctrls1.perBankRdBursts::11           24341                       # Per bank write bursts
system.mem_ctrls1.perBankRdBursts::12           23593                       # Per bank write bursts
system.mem_ctrls1.perBankRdBursts::13           23492                       # Per bank write bursts
system.mem_ctrls1.perBankRdBursts::14           23598                       # Per bank write bursts
system.mem_ctrls1.perBankRdBursts::15           23752                       # Per bank write bursts
system.mem_ctrls1.perBankWrBursts::0            20229                       # Per bank write bursts
system.mem_ctrls1.perBankWrBursts::1            20122                       # Per bank write bursts
system.mem_ctrls1.perBankWrBursts::2            20113                       # Per bank write bursts
system.mem_ctrls1.perBankWrBursts::3            20412                       # Per bank write bursts
system.mem_ctrls1.perBankWrBursts::4            20044                       # Per bank write bursts
system.mem_ctrls1.perBankWrBursts::5            20337                       # Per bank write bursts
system.mem_ctrls1.perBankWrBursts::6            20320                       # Per bank write bursts
system.mem_ctrls1.perBankWrBursts::7            20281                       # Per bank write bursts
system.mem_ctrls1.perBankWrBursts::8            20402                       # Per bank write bursts
system.mem_ctrls1.perBankWrBursts::9            20209                       # Per bank write bursts
system.mem_ctrls1.perBankWrBursts::10           20150                       # Per bank write bursts
system.mem_ctrls1.perBankWrBursts::11           20175                       # Per bank write bursts
system.mem_ctrls1.perBankWrBursts::12           19933                       # Per bank write bursts
system.mem_ctrls1.perBankWrBursts::13           20200                       # Per bank write bursts
system.mem_ctrls1.perBankWrBursts::14           20175                       # Per bank write bursts
system.mem_ctrls1.perBankWrBursts::15           20115                       # Per bank write bursts
system.mem_ctrls1.numRdRetry                    27329                       # Number of times read queue was full causing retry
system.mem_ctrls1.numWrRetry                     9710                       # Number of times write queue was full causing retry
system.mem_ctrls1.totGap                 154351872000                       # Total gap between requests
system.mem_ctrls1.readPktSize::0                    0                       # Read request sizes (log2)
system.mem_ctrls1.readPktSize::1                    0                       # Read request sizes (log2)
system.mem_ctrls1.readPktSize::2                    0                       # Read request sizes (log2)
system.mem_ctrls1.readPktSize::3                    0                       # Read request sizes (log2)
system.mem_ctrls1.readPktSize::4                    0                       # Read request sizes (log2)
system.mem_ctrls1.readPktSize::5                    0                       # Read request sizes (log2)
system.mem_ctrls1.readPktSize::6               382990                       # Read request sizes (log2)
system.mem_ctrls1.writePktSize::0                   0                       # Write request sizes (log2)
system.mem_ctrls1.writePktSize::1                   0                       # Write request sizes (log2)
system.mem_ctrls1.writePktSize::2                   0                       # Write request sizes (log2)
system.mem_ctrls1.writePktSize::3                   0                       # Write request sizes (log2)
system.mem_ctrls1.writePktSize::4                   0                       # Write request sizes (log2)
system.mem_ctrls1.writePktSize::5                   0                       # Write request sizes (log2)
system.mem_ctrls1.writePktSize::6              323217                       # Write request sizes (log2)
system.mem_ctrls1.rdQLenPdf::0                 206224                       # What read queue length does an incoming req see
system.mem_ctrls1.rdQLenPdf::1                   9654                       # What read queue length does an incoming req see
system.mem_ctrls1.rdQLenPdf::2                   9344                       # What read queue length does an incoming req see
system.mem_ctrls1.rdQLenPdf::3                   9480                       # What read queue length does an incoming req see
system.mem_ctrls1.rdQLenPdf::4                   9769                       # What read queue length does an incoming req see
system.mem_ctrls1.rdQLenPdf::5                   9499                       # What read queue length does an incoming req see
system.mem_ctrls1.rdQLenPdf::6                   8593                       # What read queue length does an incoming req see
system.mem_ctrls1.rdQLenPdf::7                   7781                       # What read queue length does an incoming req see
system.mem_ctrls1.rdQLenPdf::8                   7038                       # What read queue length does an incoming req see
system.mem_ctrls1.rdQLenPdf::9                   6318                       # What read queue length does an incoming req see
system.mem_ctrls1.rdQLenPdf::10                  5836                       # What read queue length does an incoming req see
system.mem_ctrls1.rdQLenPdf::11                  5333                       # What read queue length does an incoming req see
system.mem_ctrls1.rdQLenPdf::12                  4974                       # What read queue length does an incoming req see
system.mem_ctrls1.rdQLenPdf::13                  4559                       # What read queue length does an incoming req see
system.mem_ctrls1.rdQLenPdf::14                  4234                       # What read queue length does an incoming req see
system.mem_ctrls1.rdQLenPdf::15                  3999                       # What read queue length does an incoming req see
system.mem_ctrls1.rdQLenPdf::16                  3695                       # What read queue length does an incoming req see
system.mem_ctrls1.rdQLenPdf::17                  3502                       # What read queue length does an incoming req see
system.mem_ctrls1.rdQLenPdf::18                  3340                       # What read queue length does an incoming req see
system.mem_ctrls1.rdQLenPdf::19                  3108                       # What read queue length does an incoming req see
system.mem_ctrls1.rdQLenPdf::20                  2867                       # What read queue length does an incoming req see
system.mem_ctrls1.rdQLenPdf::21                  2760                       # What read queue length does an incoming req see
system.mem_ctrls1.rdQLenPdf::22                  2606                       # What read queue length does an incoming req see
system.mem_ctrls1.rdQLenPdf::23                  2427                       # What read queue length does an incoming req see
system.mem_ctrls1.rdQLenPdf::24                  2394                       # What read queue length does an incoming req see
system.mem_ctrls1.rdQLenPdf::25                  2225                       # What read queue length does an incoming req see
system.mem_ctrls1.rdQLenPdf::26                  2165                       # What read queue length does an incoming req see
system.mem_ctrls1.rdQLenPdf::27                  2167                       # What read queue length does an incoming req see
system.mem_ctrls1.rdQLenPdf::28                  2193                       # What read queue length does an incoming req see
system.mem_ctrls1.rdQLenPdf::29                  2303                       # What read queue length does an incoming req see
system.mem_ctrls1.rdQLenPdf::30                  2326                       # What read queue length does an incoming req see
system.mem_ctrls1.rdQLenPdf::31                 30256                       # What read queue length does an incoming req see
system.mem_ctrls1.wrQLenPdf::0                  49688                       # What write queue length does an incoming req see
system.mem_ctrls1.wrQLenPdf::1                  55012                       # What write queue length does an incoming req see
system.mem_ctrls1.wrQLenPdf::2                  57016                       # What write queue length does an incoming req see
system.mem_ctrls1.wrQLenPdf::3                  57375                       # What write queue length does an incoming req see
system.mem_ctrls1.wrQLenPdf::4                  57160                       # What write queue length does an incoming req see
system.mem_ctrls1.wrQLenPdf::5                  13785                       # What write queue length does an incoming req see
system.mem_ctrls1.wrQLenPdf::6                  13792                       # What write queue length does an incoming req see
system.mem_ctrls1.wrQLenPdf::7                  19389                       # What write queue length does an incoming req see
system.mem_ctrls1.bytesPerActivate::samples       189819                       # Bytes accessed per row activation
system.mem_ctrls1.bytesPerActivate::mean   238.090560                       # Bytes accessed per row activation
system.mem_ctrls1.bytesPerActivate::gmean   186.351790                       # Bytes accessed per row activation
system.mem_ctrls1.bytesPerActivate::stdev   174.204052                       # Bytes accessed per row activation
system.mem_ctrls1.bytesPerActivate::0-127        42041     22.15%     22.15% # Bytes accessed per row activation
system.mem_ctrls1.bytesPerActivate::128-255        56886     29.97%     52.12% # Bytes accessed per row activation
system.mem_ctrls1.bytesPerActivate::256-383        68281     35.97%     88.09% # Bytes accessed per row activation
system.mem_ctrls1.bytesPerActivate::384-511         8836      4.65%     92.74% # Bytes accessed per row activation
system.mem_ctrls1.bytesPerActivate::512-639         6015      3.17%     95.91% # Bytes accessed per row activation
system.mem_ctrls1.bytesPerActivate::640-767         2637      1.39%     97.30% # Bytes accessed per row activation
system.mem_ctrls1.bytesPerActivate::768-895         1665      0.88%     98.18% # Bytes accessed per row activation
system.mem_ctrls1.bytesPerActivate::896-1023         1170      0.62%     98.79% # Bytes accessed per row activation
system.mem_ctrls1.bytesPerActivate::1024-1151         2288      1.21%    100.00% # Bytes accessed per row activation
system.mem_ctrls1.bytesPerActivate::total       189819                       # Bytes accessed per row activation
system.mem_ctrls1.rdPerTurnAround::samples        51318                       # Reads before turning the bus around for writes
system.mem_ctrls1.rdPerTurnAround::mean      7.462586                       # Reads before turning the bus around for writes
system.mem_ctrls1.rdPerTurnAround::stdev    15.011685                       # Reads before turning the bus around for writes
system.mem_ctrls1.rdPerTurnAround::0-127        51312     99.99%     99.99% # Reads before turning the bus around for writes
system.mem_ctrls1.rdPerTurnAround::128-255            4      0.01%    100.00% # Reads before turning the bus around for writes
system.mem_ctrls1.rdPerTurnAround::1152-1279            1      0.00%    100.00% # Reads before turning the bus around for writes
system.mem_ctrls1.rdPerTurnAround::2816-2943            1      0.00%    100.00% # Reads before turning the bus around for writes
system.mem_ctrls1.rdPerTurnAround::total        51318                       # Reads before turning the bus around for writes
system.mem_ctrls1.wrPerTurnAround::samples        51318                       # Writes before turning the bus around for reads
system.mem_ctrls1.wrPerTurnAround::mean      6.298316                       # Writes before turning the bus around for reads
system.mem_ctrls1.wrPerTurnAround::gmean     5.863965                       # Writes before turning the bus around for reads
system.mem_ctrls1.wrPerTurnAround::stdev     2.951010                       # Writes before turning the bus around for reads
system.mem_ctrls1.wrPerTurnAround::4-7          42502     82.82%     82.82% # Writes before turning the bus around for reads
system.mem_ctrls1.wrPerTurnAround::8-11          4112      8.01%     90.83% # Writes before turning the bus around for reads
system.mem_ctrls1.wrPerTurnAround::12-15         2560      4.99%     95.82% # Writes before turning the bus around for reads
system.mem_ctrls1.wrPerTurnAround::16-19         2144      4.18%    100.00% # Writes before turning the bus around for reads
system.mem_ctrls1.wrPerTurnAround::total        51318                       # Writes before turning the bus around for reads
system.mem_ctrls1.totQLat                 35700445568                       # Total ticks spent queuing
system.mem_ctrls1.totMemAccLat            42881114318                       # Total ticks spent from burst creation until serviced by the DRAM
system.mem_ctrls1.totBusLat                1914845000                       # Total ticks spent in databus transfers
system.mem_ctrls1.avgQLat                    93220.20                       # Average queueing delay per DRAM burst
system.mem_ctrls1.avgBusLat                   5000.00                       # Average bus latency per DRAM burst
system.mem_ctrls1.avgMemAccLat              111970.20                       # Average memory access latency per DRAM burst
system.mem_ctrls1.avgRdBW                      158.79                       # Average DRAM read bandwidth in MiByte/s
system.mem_ctrls1.avgWrBW                      134.02                       # Average achieved write bandwidth in MiByte/s
system.mem_ctrls1.avgRdBWSys                   158.80                       # Average system read bandwidth in MiByte/s
system.mem_ctrls1.avgWrBWSys                   134.02                       # Average system write bandwidth in MiByte/s
system.mem_ctrls1.peakBW                     12800.00                       # Theoretical peak bandwidth in MiByte/s
system.mem_ctrls1.busUtil                        2.29                       # Data bus utilization in percentage
system.mem_ctrls1.busUtilRead                    1.24                       # Data bus utilization in percentage for reads
system.mem_ctrls1.busUtilWrite                   1.05                       # Data bus utilization in percentage for writes
system.mem_ctrls1.avgRdQLen                      1.24                       # Average read queue length when enqueuing
system.mem_ctrls1.avgWrQLen                      2.98                       # Average write queue length when enqueuing
system.mem_ctrls1.readRowHits                  287348                       # Number of row buffer hits during reads
system.mem_ctrls1.writeRowHits                 229010                       # Number of row buffer hits during writes
system.mem_ctrls1.readRowHitRate                75.03                       # Row buffer hit rate for reads
system.mem_ctrls1.writeRowHitRate               70.85                       # Row buffer hit rate for writes
system.mem_ctrls1.avgGap                    218564.63                       # Average gap between requests
system.mem_ctrls1.pageHitRate                   73.12                       # Row buffer hit rate, read and write combined
system.mem_ctrls1.memoryStateTime::IDLE   27042099750                       # Time in different power states
system.mem_ctrls1.memoryStateTime::REF     5153980000                       # Time in different power states
system.mem_ctrls1.memoryStateTime::PRE_PDN            0                       # Time in different power states
system.mem_ctrls1.memoryStateTime::ACT   122151046250                       # Time in different power states
system.mem_ctrls1.memoryStateTime::ACT_PDN            0                       # Time in different power states
system.mem_ctrls1.actEnergy::0              723582720                       # Energy for activate commands per rank (pJ)
system.mem_ctrls1.actEnergy::1              711335520                       # Energy for activate commands per rank (pJ)
system.mem_ctrls1.preEnergy::0              394812000                       # Energy for precharge commands per rank (pJ)
system.mem_ctrls1.preEnergy::1              388129500                       # Energy for precharge commands per rank (pJ)
system.mem_ctrls1.readEnergy::0            1500649800                       # Energy for read commands per rank (pJ)
system.mem_ctrls1.readEnergy::1            1486118400                       # Energy for read commands per rank (pJ)
system.mem_ctrls1.writeEnergy::0           1048807440                       # Energy for write commands per rank (pJ)
system.mem_ctrls1.writeEnergy::1           1045360080                       # Energy for write commands per rank (pJ)
system.mem_ctrls1.refreshEnergy::0        10081184880                       # Energy for refresh commands per rank (pJ)
system.mem_ctrls1.refreshEnergy::1        10081184880                       # Energy for refresh commands per rank (pJ)
system.mem_ctrls1.actBackEnergy::0        60445461330                       # Energy for active background per rank (pJ)
system.mem_ctrls1.actBackEnergy::1        59968847565                       # Energy for active background per rank (pJ)
system.mem_ctrls1.preBackEnergy::0        39585933000                       # Energy for precharge background per rank (pJ)
system.mem_ctrls1.preBackEnergy::1        40004015250                       # Energy for precharge background per rank (pJ)
system.mem_ctrls1.totalEnergy::0         113780431170                       # Total energy per rank (pJ)
system.mem_ctrls1.totalEnergy::1         113684991195                       # Total energy per rank (pJ)
system.mem_ctrls1.averagePower::0          737.172399                       # Core power per rank (mW)
system.mem_ctrls1.averagePower::1          736.554052                       # Core power per rank (mW)
system.mem_ctrls2.bytes_read::ruby.dir_cntrl2     24511488                       # Number of bytes read from this memory
system.mem_ctrls2.bytes_read::total          24511488                       # Number of bytes read from this memory
system.mem_ctrls2.bytes_written::ruby.dir_cntrl2     20687296                       # Number of bytes written to this memory
system.mem_ctrls2.bytes_written::total       20687296                       # Number of bytes written to this memory
system.mem_ctrls2.num_reads::ruby.dir_cntrl2       382992                       # Number of read requests responded to by this memory
system.mem_ctrls2.num_reads::total             382992                       # Number of read requests responded to by this memory
system.mem_ctrls2.num_writes::ruby.dir_cntrl2       323239                       # Number of write requests responded to by this memory
system.mem_ctrls2.num_writes::total            323239                       # Number of write requests responded to by this memory
system.mem_ctrls2.bw_read::ruby.dir_cntrl2    158801885                       # Total read bandwidth from this memory (bytes/s)
system.mem_ctrls2.bw_read::total            158801885                       # Total read bandwidth from this memory (bytes/s)
system.mem_ctrls2.bw_write::ruby.dir_cntrl2    134026200                       # Write bandwidth from this memory (bytes/s)
system.mem_ctrls2.bw_write::total           134026200                       # Write bandwidth from this memory (bytes/s)
system.mem_ctrls2.bw_total::ruby.dir_cntrl2    292828085                       # Total bandwidth to/from this memory (bytes/s)
system.mem_ctrls2.bw_total::total           292828085                       # Total bandwidth to/from this memory (bytes/s)
system.mem_ctrls2.readReqs                     382992                       # Number of read requests accepted
system.mem_ctrls2.writeReqs                    323239                       # Number of write requests accepted
system.mem_ctrls2.readBursts                   382992                       # Number of DRAM read bursts, including those serviced by the write queue
system.mem_ctrls2.writeBursts                  323239                       # Number of DRAM write bursts, including those merged in the write queue
system.mem_ctrls2.bytesReadDRAM              24510336                       # Total number of bytes read from DRAM
system.mem_ctrls2.bytesReadWrQ                   1152                       # Total number of bytes read from write queue
system.mem_ctrls2.bytesWritten               20687040                       # Total number of bytes written to DRAM
system.mem_ctrls2.bytesReadSys               24511488                       # Total read bytes from the system interface side
system.mem_ctrls2.bytesWrittenSys            20687296                       # Total written bytes from the system interface side
system.mem_ctrls2.servicedByWrQ                    18                       # Number of DRAM read bursts serviced by the write queue
system.mem_ctrls2.mergedWrBursts                    0                       # Number of DRAM write bursts merged with an existing one
system.mem_ctrls2.neitherReadNorWriteReqs            0                       # Number of requests that are neither read nor write
system.mem_ctrls2.perBankRdBursts::0            23640                       # Per bank write bursts
system.mem_ctrls2.perBankRdBursts::1            24305                       # Per bank write bursts
system.mem_ctrls2.perBankRdBursts::2            23942                       # Per bank write bursts
system.mem_ctrls2.perBankRdBursts::3            24276                       # Per bank write bursts
system.mem_ctrls2.perBankRdBursts::4            23871                       # Per bank write bursts
system.mem_ctrls2.perBankRdBursts::5            24158                       # Per bank write bursts
system.mem_ctrls2.perBankRdBursts::6            24232                       # Per bank write bursts
system.mem_ctrls2.perBankRdBursts::7            24031                       # Per bank write bursts
system.mem_ctrls2.perBankRdBursts::8            23900                       # Per bank write bursts
system.mem_ctrls2.perBankRdBursts::9            24049                       # Per bank write bursts
system.mem_ctrls2.perBankRdBursts::10           23815                       # Per bank write bursts
system.mem_ctrls2.perBankRdBursts::11           24324                       # Per bank write bursts
system.mem_ctrls2.perBankRdBursts::12           23625                       # Per bank write bursts
system.mem_ctrls2.perBankRdBursts::13           23436                       # Per bank write bursts
system.mem_ctrls2.perBankRdBursts::14           23589                       # Per bank write bursts
system.mem_ctrls2.perBankRdBursts::15           23781                       # Per bank write bursts
system.mem_ctrls2.perBankWrBursts::0            20223                       # Per bank write bursts
system.mem_ctrls2.perBankWrBursts::1            20120                       # Per bank write bursts
system.mem_ctrls2.perBankWrBursts::2            20115                       # Per bank write bursts
system.mem_ctrls2.perBankWrBursts::3            20416                       # Per bank write bursts
system.mem_ctrls2.perBankWrBursts::4            20044                       # Per bank write bursts
system.mem_ctrls2.perBankWrBursts::5            20321                       # Per bank write bursts
system.mem_ctrls2.perBankWrBursts::6            20326                       # Per bank write bursts
system.mem_ctrls2.perBankWrBursts::7            20288                       # Per bank write bursts
system.mem_ctrls2.perBankWrBursts::8            20403                       # Per bank write bursts
system.mem_ctrls2.perBankWrBursts::9            20215                       # Per bank write bursts
system.mem_ctrls2.perBankWrBursts::10           20143                       # Per bank write bursts
system.mem_ctrls2.perBankWrBursts::11           20172                       # Per bank write bursts
system.mem_ctrls2.perBankWrBursts::12           19940                       # Per bank write bursts
system.mem_ctrls2.perBankWrBursts::13           20195                       # Per bank write bursts
system.mem_ctrls2.perBankWrBursts::14           20182                       # Per bank write bursts
system.mem_ctrls2.perBankWrBursts::15           20132                       # Per bank write bursts
system.mem_ctrls2.numRdRetry                    25366                       # Number of times read queue was full causing retry
system.mem_ctrls2.numWrRetry                     9521                       # Number of times write queue was full causing retry
system.mem_ctrls2.totGap                 154351826000                       # Total gap between requests
system.mem_ctrls2.readPktSize::0                    0                       # Read request sizes (log2)
system.mem_ctrls2.readPktSize::1                    0                       # Read request sizes (log2)
system.mem_ctrls2.readPktSize::2                    0                       # Read request sizes (log2)
system.mem_ctrls2.readPktSize::3                    0                       # Read request sizes (log2)
system.mem_ctrls2.readPktSize::4                    0                       # Read request sizes (log2)
system.mem_ctrls2.readPktSize::5                    0                       # Read request sizes (log2)
system.mem_ctrls2.readPktSize::6               382992                       # Read request sizes (log2)
system.mem_ctrls2.writePktSize::0                   0                       # Write request sizes (log2)
system.mem_ctrls2.writePktSize::1                   0                       # Write request sizes (log2)
system.mem_ctrls2.writePktSize::2                   0                       # Write request sizes (log2)
system.mem_ctrls2.writePktSize::3                   0                       # Write request sizes (log2)
system.mem_ctrls2.writePktSize::4                   0                       # Write request sizes (log2)
system.mem_ctrls2.writePktSize::5                   0                       # Write request sizes (log2)
system.mem_ctrls2.writePktSize::6              323239                       # Write request sizes (log2)
system.mem_ctrls2.rdQLenPdf::0                 206527                       # What read queue length does an incoming req see
system.mem_ctrls2.rdQLenPdf::1                   9457                       # What read queue length does an incoming req see
system.mem_ctrls2.rdQLenPdf::2                   9364                       # What read queue length does an incoming req see
system.mem_ctrls2.rdQLenPdf::3                   9611                       # What read queue length does an incoming req see
system.mem_ctrls2.rdQLenPdf::4                   9719                       # What read queue length does an incoming req see
system.mem_ctrls2.rdQLenPdf::5                   9556                       # What read queue length does an incoming req see
system.mem_ctrls2.rdQLenPdf::6                   8809                       # What read queue length does an incoming req see
system.mem_ctrls2.rdQLenPdf::7                   7989                       # What read queue length does an incoming req see
system.mem_ctrls2.rdQLenPdf::8                   7275                       # What read queue length does an incoming req see
system.mem_ctrls2.rdQLenPdf::9                   6638                       # What read queue length does an incoming req see
system.mem_ctrls2.rdQLenPdf::10                  6005                       # What read queue length does an incoming req see
system.mem_ctrls2.rdQLenPdf::11                  5362                       # What read queue length does an incoming req see
system.mem_ctrls2.rdQLenPdf::12                  4900                       # What read queue length does an incoming req see
system.mem_ctrls2.rdQLenPdf::13                  4656                       # What read queue length does an incoming req see
system.mem_ctrls2.rdQLenPdf::14                  4268                       # What read queue length does an incoming req see
system.mem_ctrls2.rdQLenPdf::15                  3937                       # What read queue length does an incoming req see
system.mem_ctrls2.rdQLenPdf::16                  3708                       # What read queue length does an incoming req see
system.mem_ctrls2.rdQLenPdf::17                  3541                       # What read queue length does an incoming req see
system.mem_ctrls2.rdQLenPdf::18                  3260                       # What read queue length does an incoming req see
system.mem_ctrls2.rdQLenPdf::19                  3021                       # What read queue length does an incoming req see
system.mem_ctrls2.rdQLenPdf::20                  2764                       # What read queue length does an incoming req see
system.mem_ctrls2.rdQLenPdf::21                  2704                       # What read queue length does an incoming req see
system.mem_ctrls2.rdQLenPdf::22                  2533                       # What read queue length does an incoming req see
system.mem_ctrls2.rdQLenPdf::23                  2455                       # What read queue length does an incoming req see
system.mem_ctrls2.rdQLenPdf::24                  2410                       # What read queue length does an incoming req see
system.mem_ctrls2.rdQLenPdf::25                  2332                       # What read queue length does an incoming req see
system.mem_ctrls2.rdQLenPdf::26                  2331                       # What read queue length does an incoming req see
system.mem_ctrls2.rdQLenPdf::27                  2338                       # What read queue length does an incoming req see
system.mem_ctrls2.rdQLenPdf::28                  2346                       # What read queue length does an incoming req see
system.mem_ctrls2.rdQLenPdf::29                  2440                       # What read queue length does an incoming req see
system.mem_ctrls2.rdQLenPdf::30                  2454                       # What read queue length does an incoming req see
system.mem_ctrls2.rdQLenPdf::31                 28264                       # What read queue length does an incoming req see
system.mem_ctrls2.wrQLenPdf::0                  49642                       # What write queue length does an incoming req see
system.mem_ctrls2.wrQLenPdf::1                  54890                       # What write queue length does an incoming req see
system.mem_ctrls2.wrQLenPdf::2                  57091                       # What write queue length does an incoming req see
system.mem_ctrls2.wrQLenPdf::3                  57475                       # What write queue length does an incoming req see
system.mem_ctrls2.wrQLenPdf::4                  57213                       # What write queue length does an incoming req see
system.mem_ctrls2.wrQLenPdf::5                  13732                       # What write queue length does an incoming req see
system.mem_ctrls2.wrQLenPdf::6                  13852                       # What write queue length does an incoming req see
system.mem_ctrls2.wrQLenPdf::7                  19344                       # What write queue length does an incoming req see
system.mem_ctrls2.bytesPerActivate::samples       189104                       # Bytes accessed per row activation
system.mem_ctrls2.bytesPerActivate::mean   238.994839                       # Bytes accessed per row activation
system.mem_ctrls2.bytesPerActivate::gmean   187.533010                       # Bytes accessed per row activation
system.mem_ctrls2.bytesPerActivate::stdev   173.842415                       # Bytes accessed per row activation
system.mem_ctrls2.bytesPerActivate::0-127        41042     21.70%     21.70% # Bytes accessed per row activation
system.mem_ctrls2.bytesPerActivate::128-255        56396     29.82%     51.53% # Bytes accessed per row activation
system.mem_ctrls2.bytesPerActivate::256-383        69054     36.52%     88.04% # Bytes accessed per row activation
system.mem_ctrls2.bytesPerActivate::384-511         8893      4.70%     92.75% # Bytes accessed per row activation
system.mem_ctrls2.bytesPerActivate::512-639         5935      3.14%     95.88% # Bytes accessed per row activation
system.mem_ctrls2.bytesPerActivate::640-767         2675      1.41%     97.30% # Bytes accessed per row activation
system.mem_ctrls2.bytesPerActivate::768-895         1687      0.89%     98.19% # Bytes accessed per row activation
system.mem_ctrls2.bytesPerActivate::896-1023         1094      0.58%     98.77% # Bytes accessed per row activation
system.mem_ctrls2.bytesPerActivate::1024-1151         2328      1.23%    100.00% # Bytes accessed per row activation
system.mem_ctrls2.bytesPerActivate::total       189104                       # Bytes accessed per row activation
system.mem_ctrls2.rdPerTurnAround::samples        51330                       # Reads before turning the bus around for writes
system.mem_ctrls2.rdPerTurnAround::mean      7.460900                       # Reads before turning the bus around for writes
system.mem_ctrls2.rdPerTurnAround::stdev    15.063212                       # Reads before turning the bus around for writes
system.mem_ctrls2.rdPerTurnAround::0-127        51324     99.99%     99.99% # Reads before turning the bus around for writes
system.mem_ctrls2.rdPerTurnAround::128-255            4      0.01%    100.00% # Reads before turning the bus around for writes
system.mem_ctrls2.rdPerTurnAround::1152-1279            1      0.00%    100.00% # Reads before turning the bus around for writes
system.mem_ctrls2.rdPerTurnAround::2816-2943            1      0.00%    100.00% # Reads before turning the bus around for writes
system.mem_ctrls2.rdPerTurnAround::total        51330                       # Reads before turning the bus around for writes
system.mem_ctrls2.wrPerTurnAround::samples        51330                       # Writes before turning the bus around for reads
system.mem_ctrls2.wrPerTurnAround::mean      6.297195                       # Writes before turning the bus around for reads
system.mem_ctrls2.wrPerTurnAround::gmean     5.861815                       # Writes before turning the bus around for reads
system.mem_ctrls2.wrPerTurnAround::stdev     2.956553                       # Writes before turning the bus around for reads
system.mem_ctrls2.wrPerTurnAround::4-7          42530     82.86%     82.86% # Writes before turning the bus around for reads
system.mem_ctrls2.wrPerTurnAround::8-11          4091      7.97%     90.83% # Writes before turning the bus around for reads
system.mem_ctrls2.wrPerTurnAround::12-15         2512      4.89%     95.72% # Writes before turning the bus around for reads
system.mem_ctrls2.wrPerTurnAround::16-19         2197      4.28%    100.00% # Writes before turning the bus around for reads
system.mem_ctrls2.wrPerTurnAround::total        51330                       # Writes before turning the bus around for reads
system.mem_ctrls2.totQLat                 35241705555                       # Total ticks spent queuing
system.mem_ctrls2.totMemAccLat            42422468055                       # Total ticks spent from burst creation until serviced by the DRAM
system.mem_ctrls2.totBusLat                1914870000                       # Total ticks spent in databus transfers
system.mem_ctrls2.avgQLat                    92021.14                       # Average queueing delay per DRAM burst
system.mem_ctrls2.avgBusLat                   5000.00                       # Average bus latency per DRAM burst
system.mem_ctrls2.avgMemAccLat              110771.14                       # Average memory access latency per DRAM burst
system.mem_ctrls2.avgRdBW                      158.79                       # Average DRAM read bandwidth in MiByte/s
system.mem_ctrls2.avgWrBW                      134.02                       # Average achieved write bandwidth in MiByte/s
system.mem_ctrls2.avgRdBWSys                   158.80                       # Average system read bandwidth in MiByte/s
system.mem_ctrls2.avgWrBWSys                   134.03                       # Average system write bandwidth in MiByte/s
system.mem_ctrls2.peakBW                     12800.00                       # Theoretical peak bandwidth in MiByte/s
system.mem_ctrls2.busUtil                        2.29                       # Data bus utilization in percentage
system.mem_ctrls2.busUtilRead                    1.24                       # Data bus utilization in percentage for reads
system.mem_ctrls2.busUtilWrite                   1.05                       # Data bus utilization in percentage for writes
system.mem_ctrls2.avgRdQLen                      1.24                       # Average read queue length when enqueuing
system.mem_ctrls2.avgWrQLen                      3.00                       # Average write queue length when enqueuing
system.mem_ctrls2.readRowHits                  287480                       # Number of row buffer hits during reads
system.mem_ctrls2.writeRowHits                 229613                       # Number of row buffer hits during writes
system.mem_ctrls2.readRowHitRate                75.07                       # Row buffer hit rate for reads
system.mem_ctrls2.writeRowHitRate               71.04                       # Row buffer hit rate for writes
system.mem_ctrls2.avgGap                    218557.14                       # Average gap between requests
system.mem_ctrls2.pageHitRate                   73.22                       # Row buffer hit rate, read and write combined
system.mem_ctrls2.memoryStateTime::IDLE   27138855750                       # Time in different power states
system.mem_ctrls2.memoryStateTime::REF     5153980000                       # Time in different power states
system.mem_ctrls2.memoryStateTime::PRE_PDN            0                       # Time in different power states
system.mem_ctrls2.memoryStateTime::ACT   122054289250                       # Time in different power states
system.mem_ctrls2.memoryStateTime::ACT_PDN            0                       # Time in different power states
system.mem_ctrls2.actEnergy::0              720377280                       # Energy for activate commands per rank (pJ)
system.mem_ctrls2.actEnergy::1              709143120                       # Energy for activate commands per rank (pJ)
system.mem_ctrls2.preEnergy::0              393063000                       # Energy for precharge commands per rank (pJ)
system.mem_ctrls2.preEnergy::1              386933250                       # Energy for precharge commands per rank (pJ)
system.mem_ctrls2.readEnergy::0            1500915000                       # Energy for read commands per rank (pJ)
system.mem_ctrls2.readEnergy::1            1485907800                       # Energy for read commands per rank (pJ)
system.mem_ctrls2.writeEnergy::0           1048794480                       # Energy for write commands per rank (pJ)
system.mem_ctrls2.writeEnergy::1           1045489680                       # Energy for write commands per rank (pJ)
system.mem_ctrls2.refreshEnergy::0        10081184880                       # Energy for refresh commands per rank (pJ)
system.mem_ctrls2.refreshEnergy::1        10081184880                       # Energy for refresh commands per rank (pJ)
system.mem_ctrls2.actBackEnergy::0        60023123820                       # Energy for active background per rank (pJ)
system.mem_ctrls2.actBackEnergy::1        59560077195                       # Energy for active background per rank (pJ)
system.mem_ctrls2.preBackEnergy::0        39956403750                       # Energy for precharge background per rank (pJ)
system.mem_ctrls2.preBackEnergy::1        40362585000                       # Energy for precharge background per rank (pJ)
system.mem_ctrls2.totalEnergy::0         113723862210                       # Total energy per rank (pJ)
system.mem_ctrls2.totalEnergy::1         113631320925                       # Total energy per rank (pJ)
system.mem_ctrls2.averagePower::0          736.805900                       # Core power per rank (mW)
system.mem_ctrls2.averagePower::1          736.206334                       # Core power per rank (mW)
system.mem_ctrls3.bytes_read::ruby.dir_cntrl3     24491712                       # Number of bytes read from this memory
system.mem_ctrls3.bytes_read::total          24491712                       # Number of bytes read from this memory
system.mem_ctrls3.bytes_written::ruby.dir_cntrl3     20684928                       # Number of bytes written to this memory
system.mem_ctrls3.bytes_written::total       20684928                       # Number of bytes written to this memory
system.mem_ctrls3.num_reads::ruby.dir_cntrl3       382683                       # Number of read requests responded to by this memory
system.mem_ctrls3.num_reads::total             382683                       # Number of read requests responded to by this memory
system.mem_ctrls3.num_writes::ruby.dir_cntrl3       323202                       # Number of write requests responded to by this memory
system.mem_ctrls3.num_writes::total            323202                       # Number of write requests responded to by this memory
system.mem_ctrls3.bw_read::ruby.dir_cntrl3    158673763                       # Total read bandwidth from this memory (bytes/s)
system.mem_ctrls3.bw_read::total            158673763                       # Total read bandwidth from this memory (bytes/s)
system.mem_ctrls3.bw_write::ruby.dir_cntrl3    134010859                       # Write bandwidth from this memory (bytes/s)
system.mem_ctrls3.bw_write::total           134010859                       # Write bandwidth from this memory (bytes/s)
system.mem_ctrls3.bw_total::ruby.dir_cntrl3    292684621                       # Total bandwidth to/from this memory (bytes/s)
system.mem_ctrls3.bw_total::total           292684621                       # Total bandwidth to/from this memory (bytes/s)
system.mem_ctrls3.readReqs                     382683                       # Number of read requests accepted
system.mem_ctrls3.writeReqs                    323202                       # Number of write requests accepted
system.mem_ctrls3.readBursts                   382683                       # Number of DRAM read bursts, including those serviced by the write queue
system.mem_ctrls3.writeBursts                  323202                       # Number of DRAM write bursts, including those merged in the write queue
system.mem_ctrls3.bytesReadDRAM              24491072                       # Total number of bytes read from DRAM
system.mem_ctrls3.bytesReadWrQ                    640                       # Total number of bytes read from write queue
system.mem_ctrls3.bytesWritten               20684672                       # Total number of bytes written to DRAM
system.mem_ctrls3.bytesReadSys               24491712                       # Total read bytes from the system interface side
system.mem_ctrls3.bytesWrittenSys            20684928                       # Total written bytes from the system interface side
system.mem_ctrls3.servicedByWrQ                    10                       # Number of DRAM read bursts serviced by the write queue
system.mem_ctrls3.mergedWrBursts                    0                       # Number of DRAM write bursts merged with an existing one
system.mem_ctrls3.neitherReadNorWriteReqs            0                       # Number of requests that are neither read nor write
system.mem_ctrls3.perBankRdBursts::0            23630                       # Per bank write bursts
system.mem_ctrls3.perBankRdBursts::1            24303                       # Per bank write bursts
system.mem_ctrls3.perBankRdBursts::2            23817                       # Per bank write bursts
system.mem_ctrls3.perBankRdBursts::3            24238                       # Per bank write bursts
system.mem_ctrls3.perBankRdBursts::4            23816                       # Per bank write bursts
system.mem_ctrls3.perBankRdBursts::5            24167                       # Per bank write bursts
system.mem_ctrls3.perBankRdBursts::6            24229                       # Per bank write bursts
system.mem_ctrls3.perBankRdBursts::7            24037                       # Per bank write bursts
system.mem_ctrls3.perBankRdBursts::8            23889                       # Per bank write bursts
system.mem_ctrls3.perBankRdBursts::9            24027                       # Per bank write bursts
system.mem_ctrls3.perBankRdBursts::10           23883                       # Per bank write bursts
system.mem_ctrls3.perBankRdBursts::11           24275                       # Per bank write bursts
system.mem_ctrls3.perBankRdBursts::12           23558                       # Per bank write bursts
system.mem_ctrls3.perBankRdBursts::13           23446                       # Per bank write bursts
system.mem_ctrls3.perBankRdBursts::14           23607                       # Per bank write bursts
system.mem_ctrls3.perBankRdBursts::15           23751                       # Per bank write bursts
system.mem_ctrls3.perBankWrBursts::0            20224                       # Per bank write bursts
system.mem_ctrls3.perBankWrBursts::1            20116                       # Per bank write bursts
system.mem_ctrls3.perBankWrBursts::2            20116                       # Per bank write bursts
system.mem_ctrls3.perBankWrBursts::3            20405                       # Per bank write bursts
system.mem_ctrls3.perBankWrBursts::4            20038                       # Per bank write bursts
system.mem_ctrls3.perBankWrBursts::5            20322                       # Per bank write bursts
system.mem_ctrls3.perBankWrBursts::6            20328                       # Per bank write bursts
system.mem_ctrls3.perBankWrBursts::7            20278                       # Per bank write bursts
system.mem_ctrls3.perBankWrBursts::8            20399                       # Per bank write bursts
system.mem_ctrls3.perBankWrBursts::9            20215                       # Per bank write bursts
system.mem_ctrls3.perBankWrBursts::10           20144                       # Per bank write bursts
system.mem_ctrls3.perBankWrBursts::11           20182                       # Per bank write bursts
system.mem_ctrls3.perBankWrBursts::12           19938                       # Per bank write bursts
system.mem_ctrls3.perBankWrBursts::13           20201                       # Per bank write bursts
system.mem_ctrls3.perBankWrBursts::14           20181                       # Per bank write bursts
system.mem_ctrls3.perBankWrBursts::15           20111                       # Per bank write bursts
system.mem_ctrls3.numRdRetry                    26711                       # Number of times read queue was full causing retry
system.mem_ctrls3.numWrRetry                     9641                       # Number of times write queue was full causing retry
system.mem_ctrls3.totGap                 154351503000                       # Total gap between requests
system.mem_ctrls3.readPktSize::0                    0                       # Read request sizes (log2)
system.mem_ctrls3.readPktSize::1                    0                       # Read request sizes (log2)
system.mem_ctrls3.readPktSize::2                    0                       # Read request sizes (log2)
system.mem_ctrls3.readPktSize::3                    0                       # Read request sizes (log2)
system.mem_ctrls3.readPktSize::4                    0                       # Read request sizes (log2)
system.mem_ctrls3.readPktSize::5                    0                       # Read request sizes (log2)
system.mem_ctrls3.readPktSize::6               382683                       # Read request sizes (log2)
system.mem_ctrls3.writePktSize::0                   0                       # Write request sizes (log2)
system.mem_ctrls3.writePktSize::1                   0                       # Write request sizes (log2)
system.mem_ctrls3.writePktSize::2                   0                       # Write request sizes (log2)
system.mem_ctrls3.writePktSize::3                   0                       # Write request sizes (log2)
system.mem_ctrls3.writePktSize::4                   0                       # Write request sizes (log2)
system.mem_ctrls3.writePktSize::5                   0                       # Write request sizes (log2)
system.mem_ctrls3.writePktSize::6              323202                       # Write request sizes (log2)
system.mem_ctrls3.rdQLenPdf::0                 206099                       # What read queue length does an incoming req see
system.mem_ctrls3.rdQLenPdf::1                   9663                       # What read queue length does an incoming req see
system.mem_ctrls3.rdQLenPdf::2                   9340                       # What read queue length does an incoming req see
system.mem_ctrls3.rdQLenPdf::3                   9722                       # What read queue length does an incoming req see
system.mem_ctrls3.rdQLenPdf::4                   9820                       # What read queue length does an incoming req see
system.mem_ctrls3.rdQLenPdf::5                   9652                       # What read queue length does an incoming req see
system.mem_ctrls3.rdQLenPdf::6                   8932                       # What read queue length does an incoming req see
system.mem_ctrls3.rdQLenPdf::7                   7868                       # What read queue length does an incoming req see
system.mem_ctrls3.rdQLenPdf::8                   7160                       # What read queue length does an incoming req see
system.mem_ctrls3.rdQLenPdf::9                   6628                       # What read queue length does an incoming req see
system.mem_ctrls3.rdQLenPdf::10                  6092                       # What read queue length does an incoming req see
system.mem_ctrls3.rdQLenPdf::11                  5456                       # What read queue length does an incoming req see
system.mem_ctrls3.rdQLenPdf::12                  5012                       # What read queue length does an incoming req see
system.mem_ctrls3.rdQLenPdf::13                  4679                       # What read queue length does an incoming req see
system.mem_ctrls3.rdQLenPdf::14                  4213                       # What read queue length does an incoming req see
system.mem_ctrls3.rdQLenPdf::15                  4041                       # What read queue length does an incoming req see
system.mem_ctrls3.rdQLenPdf::16                  3814                       # What read queue length does an incoming req see
system.mem_ctrls3.rdQLenPdf::17                  3500                       # What read queue length does an incoming req see
system.mem_ctrls3.rdQLenPdf::18                  3195                       # What read queue length does an incoming req see
system.mem_ctrls3.rdQLenPdf::19                  2959                       # What read queue length does an incoming req see
system.mem_ctrls3.rdQLenPdf::20                  2764                       # What read queue length does an incoming req see
system.mem_ctrls3.rdQLenPdf::21                  2587                       # What read queue length does an incoming req see
system.mem_ctrls3.rdQLenPdf::22                  2465                       # What read queue length does an incoming req see
system.mem_ctrls3.rdQLenPdf::23                  2370                       # What read queue length does an incoming req see
system.mem_ctrls3.rdQLenPdf::24                  2224                       # What read queue length does an incoming req see
[...]
system.ruby.L2Cache_Controller.S_I.Ack_all::total           14                      
system.ruby.L2Cache_Controller.ISS.L1_GETS |           4    100.00%    100.00% |           0      0.00%    100.00% |           0      0.00%    100.00% |           0      0.00%    100.00% |           0      0.00%    100.00% |           0      0.00%    100.00% |           0      0.00%    100.00% |           0      0.00%    100.00% |           0      0.00%    100.00% |           0      0.00%    100.00% |           0      0.00%    100.00% |           0      0.00%    100.00% |           0      0.00%    100.00% |           0      0.00%    100.00% |           0      0.00%    100.00% |           0      0.00%    100.00% |           0      0.00%    100.00% |           0      0.00%    100.00% |           0      0.00%    100.00% |           0      0.00%    100.00% |           0      0.00%    100.00% |           0      0.00%    100.00% |           0      0.00%    100.00% |           0      0.00%    100.00% |           0      0.00%    100.00% |           0      0.00%    100.00% |           0      0.00%    100.00% |           0      0.00%    100.00% |           0      0.00%    100.00% |           0      0.00%    100.00% |           0      0.00%    100.00% |           0      0.00%    100.00%
system.ruby.L2Cache_Controller.ISS.L1_GETS::total            4                      
system.ruby.L2Cache_Controller.ISS.Mem_Data |       18691      7.93%      7.93% |        7080      3.00%     10.93% |        7087      3.01%     13.94% |        7033      2.98%     16.92% |        7001      2.97%     19.89% |        6985      2.96%     22.85% |        6997      2.97%     25.82% |        6991      2.97%     28.79% |        7032      2.98%     31.77% |        7035      2.98%     34.75% |        7065      3.00%     37.75% |        6989      2.96%     40.72% |        6994      2.97%     43.68% |        6994      2.97%     46.65% |        6995      2.97%     49.62% |        6959      2.95%     52.57% |        6998      2.97%     55.54% |        6973      2.96%     58.49% |        7005      2.97%     61.47% |        6984      2.96%     64.43% |        6982      2.96%     67.39% |        6968      2.96%     70.35% |        6994      2.97%     73.31% |        6987      2.96%     76.28% |        7003      2.97%     79.25% |        7007      2.97%     82.22% |        6985      2.96%     85.18% |        6964      2.95%     88.14% |        7004      2.97%     91.11% |        6984      2.96%     94.07% |        6959      2.95%     97.02% |        7024      2.98%    100.00%
system.ruby.L2Cache_Controller.ISS.Mem_Data::total       235749                      
system.ruby.L2Cache_Controller.IS.Mem_Data |         547      3.27%      3.27% |         471      2.82%      6.09% |         466      2.79%      8.88% |         466      2.79%     11.67% |         512      3.06%     14.73% |         468      2.80%     17.54% |         507      3.03%     20.57% |         532      3.18%     23.75% |         551      3.30%     27.05% |         490      2.93%     29.98% |         536      3.21%     33.19% |         568      3.40%     36.59% |         623      3.73%     40.32% |         565      3.38%     43.70% |         582      3.48%     47.18% |         526      3.15%     50.33% |         537      3.21%     53.55% |         574      3.44%     56.98% |         566      3.39%     60.37% |         513      3.07%     63.44% |         508      3.04%     66.48% |         524      3.14%     69.62% |         483      2.89%     72.51% |         471      2.82%     75.32% |         547      3.27%     78.60% |         595      3.56%     82.16% |         534      3.20%     85.36% |         482      2.88%     88.24% |         493      2.95%     91.19% |         512      3.06%     94.25% |         492      2.94%     97.20% |         468      2.80%    100.00%
system.ruby.L2Cache_Controller.IS.Mem_Data::total        16709                      
system.ruby.L2Cache_Controller.IM.L1_GETX |           2    100.00%    100.00% |           0      0.00%    100.00% |           0      0.00%    100.00% |           0      0.00%    100.00% |           0      0.00%    100.00% |           0      0.00%    100.00% |           0      0.00%    100.00% |           0      0.00%    100.00% |           0      0.00%    100.00% |           0      0.00%    100.00% |           0      0.00%    100.00% |           0      0.00%    100.00% |           0      0.00%    100.00% |           0      0.00%    100.00% |           0      0.00%    100.00% |           0      0.00%    100.00% |           0      0.00%    100.00% |           0      0.00%    100.00% |           0      0.00%    100.00% |           0      0.00%    100.00% |           0      0.00%    100.00% |           0      0.00%    100.00% |           0      0.00%    100.00% |           0      0.00%    100.00% |           0      0.00%    100.00% |           0      0.00%    100.00% |           0      0.00%    100.00% |           0      0.00%    100.00% |           0      0.00%    100.00% |           0      0.00%    100.00% |           0      0.00%    100.00% |           0      0.00%    100.00%
system.ruby.L2Cache_Controller.IM.L1_GETX::total            2                      
system.ruby.L2Cache_Controller.IM.Mem_Data |       40418      3.13%      3.13% |       40330      3.12%      6.25% |       40342      3.12%      9.38% |       40347      3.13%     12.50% |       40353      3.13%     15.63% |       40364      3.13%     18.76% |       40339      3.12%     21.88% |       40336      3.12%     25.00% |       40350      3.13%     28.13% |       40344      3.12%     31.26% |       40329      3.12%     34.38% |       40358      3.13%     37.50% |       40339      3.12%     40.63% |       40338      3.12%     43.75% |       40341      3.12%     46.88% |       40330      3.12%     50.00% |       40352      3.13%     53.13% |       40352      3.13%     56.25% |       40349      3.13%     59.38% |       40345      3.12%     62.50% |       40340      3.12%     65.63% |       40354      3.13%     68.75% |       40339      3.12%     71.88% |       40341      3.12%     75.00% |       40347      3.13%     78.13% |       40345      3.12%     81.25% |       40349      3.13%     84.38% |       40337      3.12%     87.50% |       40336      3.12%     90.63% |       40338      3.12%     93.75% |       40351      3.13%     96.88% |       40332      3.12%    100.00%
system.ruby.L2Cache_Controller.IM.Mem_Data::total      1291065                      
system.ruby.L2Cache_Controller.SS_MB.Exclusive_Unblock |           4      8.89%      8.89% |           6     13.33%     22.22% |           2      4.44%     26.67% |           6     13.33%     40.00% |           1      2.22%     42.22% |           0      0.00%     42.22% |           1      2.22%     44.44% |           0      0.00%     44.44% |           0      0.00%     44.44% |           1      2.22%     46.67% |           1      2.22%     48.89% |           0      0.00%     48.89% |           4      8.89%     57.78% |           0      0.00%     57.78% |           3      6.67%     64.44% |           0      0.00%     64.44% |           0      0.00%     64.44% |           0      0.00%     64.44% |           9     20.00%     84.44% |           0      0.00%     84.44% |           0      0.00%     84.44% |           0      0.00%     84.44% |           0      0.00%     84.44% |           0      0.00%     84.44% |           1      2.22%     86.67% |           2      4.44%     91.11% |           1      2.22%     93.33% |           1      2.22%     95.56% |           0      0.00%     95.56% |           1      2.22%     97.78% |           1      2.22%    100.00% |           0      0.00%    100.00%
system.ruby.L2Cache_Controller.SS_MB.Exclusive_Unblock::total           45                      
system.ruby.L2Cache_Controller.MT_MB.L1_PUTX |           3    100.00%    100.00% |           0      0.00%    100.00% |           0      0.00%    100.00% |           0      0.00%    100.00% |           0      0.00%    100.00% |           0      0.00%    100.00% |           0      0.00%    100.00% |           0      0.00%    100.00% |           0      0.00%    100.00% |           0      0.00%    100.00% |           0      0.00%    100.00% |           0      0.00%    100.00% |           0      0.00%    100.00% |           0      0.00%    100.00% |           0      0.00%    100.00% |           0      0.00%    100.00% |           0      0.00%    100.00% |           0      0.00%    100.00% |           0      0.00%    100.00% |           0      0.00%    100.00% |           0      0.00%    100.00% |           0      0.00%    100.00% |           0      0.00%    100.00% |           0      0.00%    100.00% |           0      0.00%    100.00% |           0      0.00%    100.00% |           0      0.00%    100.00% |           0      0.00%    100.00% |           0      0.00%    100.00% |           0      0.00%    100.00% |           0      0.00%    100.00% |           0      0.00%    100.00%
system.ruby.L2Cache_Controller.MT_MB.L1_PUTX::total            3                      
system.ruby.L2Cache_Controller.MT_MB.Exclusive_Unblock |      173155      8.48%      8.48% |       64263      3.15%     11.63% |       58759      2.88%     14.51% |       58462      2.86%     17.37% |       57800      2.83%     20.20% |       56505      2.77%     22.97% |       55007      2.69%     25.67% |       55300      2.71%     28.38% |       59171      2.90%     31.27% |       57722      2.83%     34.10% |       60646      2.97%     37.07% |       60210      2.95%     40.02% |       56860      2.79%     42.81% |       56795      2.78%     45.59% |       56448      2.77%     48.36% |       56867      2.79%     51.14% |       59096      2.89%     54.04% |       58515      2.87%     56.90% |       59886      2.93%     59.84% |       60878      2.98%     62.82% |       60909      2.98%     65.80% |       63097      3.09%     68.89% |       64328      3.15%     72.04% |       60552      2.97%     75.01% |       61149      3.00%     78.01% |       62476      3.06%     81.07% |       60798      2.98%     84.05% |       61421      3.01%     87.05% |       64096      3.14%     90.19% |       61915      3.03%     93.23% |       70028      3.43%     96.66% |       68236      3.34%    100.00%
system.ruby.L2Cache_Controller.MT_MB.Exclusive_Unblock::total      2041350                      
system.ruby.L2Cache_Controller.MT_IIB.WB_Data |           0      0.00%      0.00% |           0      0.00%      0.00% |           0      0.00%      0.00% |           0      0.00%      0.00% |           0      0.00%      0.00% |           1     50.00%     50.00% |           0      0.00%     50.00% |           0      0.00%     50.00% |           0      0.00%     50.00% |           0      0.00%     50.00% |           0      0.00%     50.00% |           0      0.00%     50.00% |           0      0.00%     50.00% |           0      0.00%     50.00% |           0      0.00%     50.00% |           0      0.00%     50.00% |           0      0.00%     50.00% |           0      0.00%     50.00% |           0      0.00%     50.00% |           0      0.00%     50.00% |           0      0.00%     50.00% |           0      0.00%     50.00% |           0      0.00%     50.00% |           0      0.00%     50.00% |           0      0.00%     50.00% |           0      0.00%     50.00% |           0      0.00%     50.00% |           0      0.00%     50.00% |           1     50.00%    100.00% |           0      0.00%    100.00% |           0      0.00%    100.00% |           0      0.00%    100.00%
system.ruby.L2Cache_Controller.MT_IIB.WB_Data::total            2                      
system.ruby.L2Cache_Controller.MT_IIB.WB_Data_clean |          19    100.00%    100.00% |           0      0.00%    100.00% |           0      0.00%    100.00% |           0      0.00%    100.00% |           0      0.00%    100.00% |           0      0.00%    100.00% |           0      0.00%    100.00% |           0      0.00%    100.00% |           0      0.00%    100.00% |           0      0.00%    100.00% |           0      0.00%    100.00% |           0      0.00%    100.00% |           0      0.00%    100.00% |           0      0.00%    100.00% |           0      0.00%    100.00% |           0      0.00%    100.00% |           0      0.00%    100.00% |           0      0.00%    100.00% |           0      0.00%    100.00% |           0      0.00%    100.00% |           0      0.00%    100.00% |           0      0.00%    100.00% |           0      0.00%    100.00% |           0      0.00%    100.00% |           0      0.00%    100.00% |           0      0.00%    100.00% |           0      0.00%    100.00% |           0      0.00%    100.00% |           0      0.00%    100.00% |           0      0.00%    100.00% |           0      0.00%    100.00% |           0      0.00%    100.00%
system.ruby.L2Cache_Controller.MT_IIB.WB_Data_clean::total           19                      
system.ruby.L2Cache_Controller.MT_SB.Unblock |          19     90.48%     90.48% |           0      0.00%     90.48% |           0      0.00%     90.48% |           0      0.00%     90.48% |           0      0.00%     90.48% |           1      4.76%     95.24% |           0      0.00%     95.24% |           0      0.00%     95.24% |           0      0.00%     95.24% |           0      0.00%     95.24% |           0      0.00%     95.24% |           0      0.00%     95.24% |           0      0.00%     95.24% |           0      0.00%     95.24% |           0      0.00%     95.24% |           0      0.00%     95.24% |           0      0.00%     95.24% |           0      0.00%     95.24% |           0      0.00%     95.24% |           0      0.00%     95.24% |           0      0.00%     95.24% |           0      0.00%     95.24% |           0      0.00%     95.24% |           0      0.00%     95.24% |           0      0.00%     95.24% |           0      0.00%     95.24% |           0      0.00%     95.24% |           0      0.00%     95.24% |           1      4.76%    100.00% |           0      0.00%    100.00% |           0      0.00%    100.00% |           0      0.00%    100.00%
system.ruby.L2Cache_Controller.MT_SB.Unblock::total           21                      
system.ruby.SimicsNetworkPortInterface_Controller.MessageSend |      587509     24.39%     24.39% |     1204518     50.00%     74.39% |       76965      3.19%     77.58% |       77497      3.22%     80.80% |       76987      3.20%     84.00% |       77367      3.21%     87.21% |       79350      3.29%     90.50% |       75270      3.12%     93.63% |       76697      3.18%     96.81% |       76876      3.19%    100.00% |           0      0.00%    100.00% |           0      0.00%    100.00% |           0      0.00%    100.00% |           0      0.00%    100.00% |           0      0.00%    100.00% |           0      0.00%    100.00% |           0      0.00%    100.00% |           0      0.00%    100.00% |           0      0.00%    100.00% |           0      0.00%    100.00% |           0      0.00%    100.00% |           0      0.00%    100.00% |           0      0.00%    100.00% |           0      0.00%    100.00% |           0      0.00%    100.00% |           0      0.00%    100.00% |           0      0.00%    100.00% |           0      0.00%    100.00% |           0      0.00%    100.00% |           0      0.00%    100.00% |           0      0.00%    100.00% |           0      0.00%    100.00%
system.ruby.SimicsNetworkPortInterface_Controller.MessageSend::total      2409036                      
system.ruby.SimicsNetworkPortInterface_Controller.MessageRecv |      587509     24.39%     24.39% |     1204518     50.00%     74.39% |       76965      3.19%     77.58% |       77497      3.22%     80.80% |       76987      3.20%     84.00% |       77367      3.21%     87.21% |       79350      3.29%     90.50% |       75270      3.12%     93.63% |       76697      3.18%     96.81% |       76876      3.19%    100.00% |           0      0.00%    100.00% |           0      0.00%    100.00% |           0      0.00%    100.00% |           0      0.00%    100.00% |           0      0.00%    100.00% |           0      0.00%    100.00% |           0      0.00%    100.00% |           0      0.00%    100.00% |           0      0.00%    100.00% |           0      0.00%    100.00% |           0      0.00%    100.00% |           0      0.00%    100.00% |           0      0.00%    100.00% |           0      0.00%    100.00% |           0      0.00%    100.00% |           0      0.00%    100.00% |           0      0.00%    100.00% |           0      0.00%    100.00% |           0      0.00%    100.00% |           0      0.00%    100.00% |           0      0.00%    100.00% |           0      0.00%    100.00%
system.ruby.SimicsNetworkPortInterface_Controller.MessageRecv::total      2409036                      
system.ruby.SimicsNetworkPortInterface_Controller.A.MessageSend |      587509     24.39%     24.39% |     1204518     50.00%     74.39% |       76965      3.19%     77.58% |       77497      3.22%     80.80% |       76987      3.20%     84.00% |       77367      3.21%     87.21% |       79350      3.29%     90.50% |       75270      3.12%     93.63% |       76697      3.18%     96.81% |       76876      3.19%    100.00% |           0      0.00%    100.00% |           0      0.00%    100.00% |           0      0.00%    100.00% |           0      0.00%    100.00% |           0      0.00%    100.00% |           0      0.00%    100.00% |           0      0.00%    100.00% |           0      0.00%    100.00% |           0      0.00%    100.00% |           0      0.00%    100.00% |           0      0.00%    100.00% |           0      0.00%    100.00% |           0      0.00%    100.00% |           0      0.00%    100.00% |           0      0.00%    100.00% |           0      0.00%    100.00% |           0      0.00%    100.00% |           0      0.00%    100.00% |           0      0.00%    100.00% |           0      0.00%    100.00% |           0      0.00%    100.00% |           0      0.00%    100.00%
system.ruby.SimicsNetworkPortInterface_Controller.A.MessageSend::total      2409036                      
system.ruby.SimicsNetworkPortInterface_Controller.A.MessageRecv |      587509     24.39%     24.39% |     1204518     50.00%     74.39% |       76965      3.19%     77.58% |       77497      3.22%     80.80% |       76987      3.20%     84.00% |       77367      3.21%     87.21% |       79350      3.29%     90.50% |       75270      3.12%     93.63% |       76697      3.18%     96.81% |       76876      3.19%    100.00% |           0      0.00%    100.00% |           0      0.00%    100.00% |           0      0.00%    100.00% |           0      0.00%    100.00% |           0      0.00%    100.00% |           0      0.00%    100.00% |           0      0.00%    100.00% |           0      0.00%    100.00% |           0      0.00%    100.00% |           0      0.00%    100.00% |           0      0.00%    100.00% |           0      0.00%    100.00% |           0      0.00%    100.00% |           0      0.00%    100.00% |           0      0.00%    100.00% |           0      0.00%    100.00% |           0      0.00%    100.00% |           0      0.00%    100.00% |           0      0.00%    100.00% |           0      0.00%    100.00% |           0      0.00%    100.00% |           0      0.00%    100.00%
system.ruby.SimicsNetworkPortInterface_Controller.A.MessageRecv::total      2409036                      
system.switch_cpus.kern.inst.arm                    0                       # number of arm instructions executed
system.switch_cpus.kern.inst.quiesce                0                       # number of quiesce instructions executed

---------- End Simulation Statistics   ----------
