
---------- Begin Simulation Statistics ----------
sim_seconds                                  0.035836                       # Number of seconds simulated
sim_ticks                                 35835787000                       # Number of ticks simulated
final_tick                               5212003865500                       # Number of ticks from beginning of simulation (restored from checkpoints and never reset)
sim_freq                                 1000000000000                       # Frequency of simulated ticks
host_inst_rate                                  29113                       # Simulator instruction rate (inst/s)
host_op_rate                                    53228                       # Simulator op (including micro ops) rate (op/s)
host_tick_rate                               48106539                       # Simulator tick rate (ticks/s)
host_mem_usage                                4739040                       # Number of bytes of host memory used
host_seconds                                   744.93                       # Real time elapsed on the host
sim_insts                                    21687205                       # Number of instructions simulated
sim_ops                                      39651077                       # Number of ops (including micro ops) simulated
system.voltage_domain.voltage                       1                       # Voltage in Volts
system.clk_domain.clock                           500                       # Clock period in ticks
system.mem_ctrls0.bytes_read::ruby.dir_cntrl0      4964544                       # Number of bytes read from this memory
system.mem_ctrls0.bytes_read::total           4964544                       # Number of bytes read from this memory
system.mem_ctrls0.bytes_written::ruby.dir_cntrl0      3961152                       # Number of bytes written to this memory
system.mem_ctrls0.bytes_written::total        3961152                       # Number of bytes written to this memory
system.mem_ctrls0.num_reads::ruby.dir_cntrl0        77571                       # Number of read requests responded to by this memory
system.mem_ctrls0.num_reads::total              77571                       # Number of read requests responded to by this memory
system.mem_ctrls0.num_writes::ruby.dir_cntrl0        61893                       # Number of write requests responded to by this memory
system.mem_ctrls0.num_writes::total             61893                       # Number of write requests responded to by this memory
system.mem_ctrls0.bw_read::ruby.dir_cntrl0    138535928                       # Total read bandwidth from this memory (bytes/s)
system.mem_ctrls0.bw_read::total            138535928                       # Total read bandwidth from this memory (bytes/s)
system.mem_ctrls0.bw_write::ruby.dir_cntrl0    110536208                       # Write bandwidth from this memory (bytes/s)
system.mem_ctrls0.bw_write::total           110536208                       # Write bandwidth from this memory (bytes/s)
system.mem_ctrls0.bw_total::ruby.dir_cntrl0    249072136                       # Total bandwidth to/from this memory (bytes/s)
system.mem_ctrls0.bw_total::total           249072136                       # Total bandwidth to/from this memory (bytes/s)
system.mem_ctrls0.readReqs                      77571                       # Number of read requests accepted
system.mem_ctrls0.writeReqs                     61893                       # Number of write requests accepted
system.mem_ctrls0.readBursts                    77571                       # Number of DRAM read bursts, including those serviced by the write queue
system.mem_ctrls0.writeBursts                   61893                       # Number of DRAM write bursts, including those merged in the write queue
system.mem_ctrls0.bytesReadDRAM               4963136                       # Total number of bytes read from DRAM
system.mem_ctrls0.bytesReadWrQ                   1408                       # Total number of bytes read from write queue
system.mem_ctrls0.bytesWritten                3960960                       # Total number of bytes written to DRAM
system.mem_ctrls0.bytesReadSys                4964544                       # Total read bytes from the system interface side
system.mem_ctrls0.bytesWrittenSys             3961152                       # Total written bytes from the system interface side
system.mem_ctrls0.servicedByWrQ                    22                       # Number of DRAM read bursts serviced by the write queue
system.mem_ctrls0.mergedWrBursts                    0                       # Number of DRAM write bursts merged with an existing one
system.mem_ctrls0.neitherReadNorWriteReqs            0                       # Number of requests that are neither read nor write
system.mem_ctrls0.perBankRdBursts::0             4394                       # Per bank write bursts
system.mem_ctrls0.perBankRdBursts::1             4833                       # Per bank write bursts
system.mem_ctrls0.perBankRdBursts::2             4542                       # Per bank write bursts
system.mem_ctrls0.perBankRdBursts::3             4966                       # Per bank write bursts
system.mem_ctrls0.perBankRdBursts::4             4845                       # Per bank write bursts
system.mem_ctrls0.perBankRdBursts::5             5348                       # Per bank write bursts
system.mem_ctrls0.perBankRdBursts::6             4944                       # Per bank write bursts
system.mem_ctrls0.perBankRdBursts::7             5219                       # Per bank write bursts
system.mem_ctrls0.perBankRdBursts::8             5035                       # Per bank write bursts
system.mem_ctrls0.perBankRdBursts::9             5193                       # Per bank write bursts
system.mem_ctrls0.perBankRdBursts::10            4616                       # Per bank write bursts
system.mem_ctrls0.perBankRdBursts::11            4793                       # Per bank write bursts
system.mem_ctrls0.perBankRdBursts::12            4583                       # Per bank write bursts
system.mem_ctrls0.perBankRdBursts::13            4627                       # Per bank write bursts
system.mem_ctrls0.perBankRdBursts::14            4796                       # Per bank write bursts
system.mem_ctrls0.perBankRdBursts::15            4815                       # Per bank write bursts
system.mem_ctrls0.perBankWrBursts::0             3634                       # Per bank write bursts
system.mem_ctrls0.perBankWrBursts::1             3579                       # Per bank write bursts
system.mem_ctrls0.perBankWrBursts::2             3630                       # Per bank write bursts
system.mem_ctrls0.perBankWrBursts::3             3793                       # Per bank write bursts
system.mem_ctrls0.perBankWrBursts::4             3842                       # Per bank write bursts
system.mem_ctrls0.perBankWrBursts::5             4181                       # Per bank write bursts
system.mem_ctrls0.perBankWrBursts::6             3898                       # Per bank write bursts
system.mem_ctrls0.perBankWrBursts::7             4174                       # Per bank write bursts
system.mem_ctrls0.perBankWrBursts::8             4039                       # Per bank write bursts
system.mem_ctrls0.perBankWrBursts::9             4112                       # Per bank write bursts
system.mem_ctrls0.perBankWrBursts::10            3703                       # Per bank write bursts
system.mem_ctrls0.perBankWrBursts::11            3636                       # Per bank write bursts
system.mem_ctrls0.perBankWrBursts::12            3795                       # Per bank write bursts
system.mem_ctrls0.perBankWrBursts::13            3911                       # Per bank write bursts
system.mem_ctrls0.perBankWrBursts::14            4042                       # Per bank write bursts
system.mem_ctrls0.perBankWrBursts::15            3921                       # Per bank write bursts
system.mem_ctrls0.numRdRetry                      320                       # Number of times read queue was full causing retry
system.mem_ctrls0.numWrRetry                      717                       # Number of times write queue was full causing retry
system.mem_ctrls0.totGap                  35835294500                       # Total gap between requests
system.mem_ctrls0.readPktSize::0                    0                       # Read request sizes (log2)
system.mem_ctrls0.readPktSize::1                    0                       # Read request sizes (log2)
system.mem_ctrls0.readPktSize::2                    0                       # Read request sizes (log2)
system.mem_ctrls0.readPktSize::3                    0                       # Read request sizes (log2)
system.mem_ctrls0.readPktSize::4                    0                       # Read request sizes (log2)
system.mem_ctrls0.readPktSize::5                    0                       # Read request sizes (log2)
system.mem_ctrls0.readPktSize::6                77571                       # Read request sizes (log2)
system.mem_ctrls0.writePktSize::0                   0                       # Write request sizes (log2)
system.mem_ctrls0.writePktSize::1                   0                       # Write request sizes (log2)
system.mem_ctrls0.writePktSize::2                   0                       # Write request sizes (log2)
system.mem_ctrls0.writePktSize::3                   0                       # Write request sizes (log2)
system.mem_ctrls0.writePktSize::4                   0                       # Write request sizes (log2)
system.mem_ctrls0.writePktSize::5                   0                       # Write request sizes (log2)
system.mem_ctrls0.writePktSize::6               61893                       # Write request sizes (log2)
system.mem_ctrls0.rdQLenPdf::0                  49859                       # What read queue length does an incoming req see
system.mem_ctrls0.rdQLenPdf::1                  11125                       # What read queue length does an incoming req see
system.mem_ctrls0.rdQLenPdf::2                   5599                       # What read queue length does an incoming req see
system.mem_ctrls0.rdQLenPdf::3                   2796                       # What read queue length does an incoming req see
system.mem_ctrls0.rdQLenPdf::4                   1695                       # What read queue length does an incoming req see
system.mem_ctrls0.rdQLenPdf::5                   1070                       # What read queue length does an incoming req see
system.mem_ctrls0.rdQLenPdf::6                    819                       # What read queue length does an incoming req see
system.mem_ctrls0.rdQLenPdf::7                    719                       # What read queue length does an incoming req see
system.mem_ctrls0.rdQLenPdf::8                    617                       # What read queue length does an incoming req see
system.mem_ctrls0.rdQLenPdf::9                    521                       # What read queue length does an incoming req see
system.mem_ctrls0.rdQLenPdf::10                   428                       # What read queue length does an incoming req see
system.mem_ctrls0.rdQLenPdf::11                   344                       # What read queue length does an incoming req see
system.mem_ctrls0.rdQLenPdf::12                   261                       # What read queue length does an incoming req see
system.mem_ctrls0.rdQLenPdf::13                   198                       # What read queue length does an incoming req see
system.mem_ctrls0.rdQLenPdf::14                   149                       # What read queue length does an incoming req see
system.mem_ctrls0.rdQLenPdf::15                   107                       # What read queue length does an incoming req see
system.mem_ctrls0.rdQLenPdf::16                    83                       # What read queue length does an incoming req see
system.mem_ctrls0.rdQLenPdf::17                    62                       # What read queue length does an incoming req see
system.mem_ctrls0.rdQLenPdf::18                    60                       # What read queue length does an incoming req see
system.mem_ctrls0.rdQLenPdf::19                    52                       # What read queue length does an incoming req see
system.mem_ctrls0.rdQLenPdf::20                    51                       # What read queue length does an incoming req see
system.mem_ctrls0.rdQLenPdf::21                    50                       # What read queue length does an incoming req see
system.mem_ctrls0.rdQLenPdf::22                    55                       # What read queue length does an incoming req see
system.mem_ctrls0.rdQLenPdf::23                    54                       # What read queue length does an incoming req see
system.mem_ctrls0.rdQLenPdf::24                    59                       # What read queue length does an incoming req see
system.mem_ctrls0.rdQLenPdf::25                    55                       # What read queue length does an incoming req see
system.mem_ctrls0.rdQLenPdf::26                    46                       # What read queue length does an incoming req see
system.mem_ctrls0.rdQLenPdf::27                    54                       # What read queue length does an incoming req see
system.mem_ctrls0.rdQLenPdf::28                    61                       # What read queue length does an incoming req see
system.mem_ctrls0.rdQLenPdf::29                    54                       # What read queue length does an incoming req see
system.mem_ctrls0.rdQLenPdf::30                    63                       # What read queue length does an incoming req see
system.mem_ctrls0.rdQLenPdf::31                   383                       # What read queue length does an incoming req see
system.mem_ctrls0.wrQLenPdf::0                  10516                       # What write queue length does an incoming req see
system.mem_ctrls0.wrQLenPdf::1                  11969                       # What write queue length does an incoming req see
system.mem_ctrls0.wrQLenPdf::2                  12177                       # What write queue length does an incoming req see
system.mem_ctrls0.wrQLenPdf::3                  12086                       # What write queue length does an incoming req see
system.mem_ctrls0.wrQLenPdf::4                  11743                       # What write queue length does an incoming req see
system.mem_ctrls0.wrQLenPdf::5                   1295                       # What write queue length does an incoming req see
system.mem_ctrls0.wrQLenPdf::6                    842                       # What write queue length does an incoming req see
system.mem_ctrls0.wrQLenPdf::7                   1265                       # What write queue length does an incoming req see
system.mem_ctrls0.bytesPerActivate::samples        57723                       # Bytes accessed per row activation
system.mem_ctrls0.bytesPerActivate::mean   154.585451                       # Bytes accessed per row activation
system.mem_ctrls0.bytesPerActivate::gmean   111.107040                       # Bytes accessed per row activation
system.mem_ctrls0.bytesPerActivate::stdev   164.958522                       # Bytes accessed per row activation
system.mem_ctrls0.bytesPerActivate::0-127        32430     56.18%     56.18% # Bytes accessed per row activation
system.mem_ctrls0.bytesPerActivate::128-255        13645     23.64%     79.82% # Bytes accessed per row activation
system.mem_ctrls0.bytesPerActivate::256-383         7142     12.37%     92.19% # Bytes accessed per row activation
system.mem_ctrls0.bytesPerActivate::384-511         1719      2.98%     95.17% # Bytes accessed per row activation
system.mem_ctrls0.bytesPerActivate::512-639         1003      1.74%     96.91% # Bytes accessed per row activation
system.mem_ctrls0.bytesPerActivate::640-767          574      0.99%     97.90% # Bytes accessed per row activation
system.mem_ctrls0.bytesPerActivate::768-895          385      0.67%     98.57% # Bytes accessed per row activation
system.mem_ctrls0.bytesPerActivate::896-1023          279      0.48%     99.05% # Bytes accessed per row activation
system.mem_ctrls0.bytesPerActivate::1024-1151          546      0.95%    100.00% # Bytes accessed per row activation
system.mem_ctrls0.bytesPerActivate::total        57723                       # Bytes accessed per row activation
system.mem_ctrls0.rdPerTurnAround::samples        10684                       # Reads before turning the bus around for writes
system.mem_ctrls0.rdPerTurnAround::mean      7.257769                       # Reads before turning the bus around for writes
system.mem_ctrls0.rdPerTurnAround::stdev    39.089478                       # Reads before turning the bus around for writes
system.mem_ctrls0.rdPerTurnAround::0-127        10678     99.94%     99.94% # Reads before turning the bus around for writes
system.mem_ctrls0.rdPerTurnAround::128-255            5      0.05%     99.99% # Reads before turning the bus around for writes
system.mem_ctrls0.rdPerTurnAround::3968-4095            1      0.01%    100.00% # Reads before turning the bus around for writes
system.mem_ctrls0.rdPerTurnAround::total        10684                       # Reads before turning the bus around for writes
system.mem_ctrls0.wrPerTurnAround::samples        10684                       # Writes before turning the bus around for reads
system.mem_ctrls0.wrPerTurnAround::mean      5.792774                       # Writes before turning the bus around for reads
system.mem_ctrls0.wrPerTurnAround::gmean     5.569844                       # Writes before turning the bus around for reads
system.mem_ctrls0.wrPerTurnAround::stdev     2.099090                       # Writes before turning the bus around for reads
system.mem_ctrls0.wrPerTurnAround::4-7           9727     91.04%     91.04% # Writes before turning the bus around for reads
system.mem_ctrls0.wrPerTurnAround::8-11           523      4.90%     95.94% # Writes before turning the bus around for reads
system.mem_ctrls0.wrPerTurnAround::12-15          220      2.06%     98.00% # Writes before turning the bus around for reads
system.mem_ctrls0.wrPerTurnAround::16-19          214      2.00%    100.00% # Writes before turning the bus around for reads
system.mem_ctrls0.wrPerTurnAround::total        10684                       # Writes before turning the bus around for reads
system.mem_ctrls0.totQLat                  3306466685                       # Total ticks spent queuing
system.mem_ctrls0.totMemAccLat             4760510435                       # Total ticks spent from burst creation until serviced by the DRAM
system.mem_ctrls0.totBusLat                 387745000                       # Total ticks spent in databus transfers
system.mem_ctrls0.avgQLat                    42637.13                       # Average queueing delay per DRAM burst
system.mem_ctrls0.avgBusLat                   5000.00                       # Average bus latency per DRAM burst
system.mem_ctrls0.avgMemAccLat               61387.13                       # Average memory access latency per DRAM burst
system.mem_ctrls0.avgRdBW                      138.50                       # Average DRAM read bandwidth in MiByte/s
system.mem_ctrls0.avgWrBW                      110.53                       # Average achieved write bandwidth in MiByte/s
system.mem_ctrls0.avgRdBWSys                   138.54                       # Average system read bandwidth in MiByte/s
system.mem_ctrls0.avgWrBWSys                   110.54                       # Average system write bandwidth in MiByte/s
system.mem_ctrls0.peakBW                     12800.00                       # Theoretical peak bandwidth in MiByte/s
system.mem_ctrls0.busUtil                        1.95                       # Data bus utilization in percentage
system.mem_ctrls0.busUtilRead                    1.08                       # Data bus utilization in percentage for reads
system.mem_ctrls0.busUtilWrite                   0.86                       # Data bus utilization in percentage for writes
system.mem_ctrls0.avgRdQLen                      1.15                       # Average read queue length when enqueuing
system.mem_ctrls0.avgWrQLen                      2.85                       # Average write queue length when enqueuing
system.mem_ctrls0.readRowHits                   50921                       # Number of row buffer hits during reads
system.mem_ctrls0.writeRowHits                  30785                       # Number of row buffer hits during writes
system.mem_ctrls0.readRowHitRate                65.66                       # Row buffer hit rate for reads
system.mem_ctrls0.writeRowHitRate               49.74                       # Row buffer hit rate for writes
system.mem_ctrls0.avgGap                    256950.14                       # Average gap between requests
system.mem_ctrls0.pageHitRate                   58.59                       # Row buffer hit rate, read and write combined
system.mem_ctrls0.memoryStateTime::IDLE    8404454250                       # Time in different power states
system.mem_ctrls0.memoryStateTime::REF     1196520000                       # Time in different power states
system.mem_ctrls0.memoryStateTime::PRE_PDN            0                       # Time in different power states
system.mem_ctrls0.memoryStateTime::ACT    26231976250                       # Time in different power states
system.mem_ctrls0.memoryStateTime::ACT_PDN            0                       # Time in different power states
system.mem_ctrls0.actEnergy::0              217221480                       # Energy for activate commands per rank (pJ)
system.mem_ctrls0.actEnergy::1              219141720                       # Energy for activate commands per rank (pJ)
system.mem_ctrls0.preEnergy::0              118523625                       # Energy for precharge commands per rank (pJ)
system.mem_ctrls0.preEnergy::1              119571375                       # Energy for precharge commands per rank (pJ)
system.mem_ctrls0.readEnergy::0             304855200                       # Energy for read commands per rank (pJ)
system.mem_ctrls0.readEnergy::1             299925600                       # Energy for read commands per rank (pJ)
system.mem_ctrls0.writeEnergy::0            199123920                       # Energy for write commands per rank (pJ)
system.mem_ctrls0.writeEnergy::1            201890880                       # Energy for write commands per rank (pJ)
system.mem_ctrls0.refreshEnergy::0         2340393120                       # Energy for refresh commands per rank (pJ)
system.mem_ctrls0.refreshEnergy::1         2340393120                       # Energy for refresh commands per rank (pJ)
system.mem_ctrls0.actBackEnergy::0        13950100485                       # Energy for active background per rank (pJ)
system.mem_ctrls0.actBackEnergy::1        13488126885                       # Energy for active background per rank (pJ)
system.mem_ctrls0.preBackEnergy::0         9262619250                       # Energy for precharge background per rank (pJ)
system.mem_ctrls0.preBackEnergy::1         9667859250                       # Energy for precharge background per rank (pJ)
system.mem_ctrls0.totalEnergy::0          26392837080                       # Total energy per rank (pJ)
system.mem_ctrls0.totalEnergy::1          26336908830                       # Total energy per rank (pJ)
system.mem_ctrls0.averagePower::0          736.559724                       # Core power per rank (mW)
system.mem_ctrls0.averagePower::1          734.998903                       # Core power per rank (mW)
system.mem_ctrls1.bytes_read::ruby.dir_cntrl1      4879744                       # Number of bytes read from this memory
system.mem_ctrls1.bytes_read::total           4879744                       # Number of bytes read from this memory
system.mem_ctrls1.bytes_written::ruby.dir_cntrl1      3884608                       # Number of bytes written to this memory
system.mem_ctrls1.bytes_written::total        3884608                       # Number of bytes written to this memory
system.mem_ctrls1.num_reads::ruby.dir_cntrl1        76246                       # Number of read requests responded to by this memory
system.mem_ctrls1.num_reads::total              76246                       # Number of read requests responded to by this memory
system.mem_ctrls1.num_writes::ruby.dir_cntrl1        60697                       # Number of write requests responded to by this memory
system.mem_ctrls1.num_writes::total             60697                       # Number of write requests responded to by this memory
system.mem_ctrls1.bw_read::ruby.dir_cntrl1    136169578                       # Total read bandwidth from this memory (bytes/s)
system.mem_ctrls1.bw_read::total            136169578                       # Total read bandwidth from this memory (bytes/s)
system.mem_ctrls1.bw_write::ruby.dir_cntrl1    108400242                       # Write bandwidth from this memory (bytes/s)
system.mem_ctrls1.bw_write::total           108400242                       # Write bandwidth from this memory (bytes/s)
system.mem_ctrls1.bw_total::ruby.dir_cntrl1    244569821                       # Total bandwidth to/from this memory (bytes/s)
system.mem_ctrls1.bw_total::total           244569821                       # Total bandwidth to/from this memory (bytes/s)
system.mem_ctrls1.readReqs                      76247                       # Number of read requests accepted
system.mem_ctrls1.writeReqs                     60697                       # Number of write requests accepted
system.mem_ctrls1.readBursts                    76247                       # Number of DRAM read bursts, including those serviced by the write queue
system.mem_ctrls1.writeBursts                   60697                       # Number of DRAM write bursts, including those merged in the write queue
system.mem_ctrls1.bytesReadDRAM               4878912                       # Total number of bytes read from DRAM
system.mem_ctrls1.bytesReadWrQ                    896                       # Total number of bytes read from write queue
system.mem_ctrls1.bytesWritten                3884352                       # Total number of bytes written to DRAM
system.mem_ctrls1.bytesReadSys                4879808                       # Total read bytes from the system interface side
system.mem_ctrls1.bytesWrittenSys             3884608                       # Total written bytes from the system interface side
system.mem_ctrls1.servicedByWrQ                    14                       # Number of DRAM read bursts serviced by the write queue
system.mem_ctrls1.mergedWrBursts                    0                       # Number of DRAM write bursts merged with an existing one
system.mem_ctrls1.neitherReadNorWriteReqs            0                       # Number of requests that are neither read nor write
system.mem_ctrls1.perBankRdBursts::0             4324                       # Per bank write bursts
system.mem_ctrls1.perBankRdBursts::1             4743                       # Per bank write bursts
system.mem_ctrls1.perBankRdBursts::2             4463                       # Per bank write bursts
system.mem_ctrls1.perBankRdBursts::3             4894                       # Per bank write bursts
system.mem_ctrls1.perBankRdBursts::4             4779                       # Per bank write bursts
system.mem_ctrls1.perBankRdBursts::5             5294                       # Per bank write bursts
system.mem_ctrls1.perBankRdBursts::6             4876                       # Per bank write bursts
system.mem_ctrls1.perBankRdBursts::7             5160                       # Per bank write bursts
system.mem_ctrls1.perBankRdBursts::8             4933                       # Per bank write bursts
system.mem_ctrls1.perBankRdBursts::9             5082                       # Per bank write bursts
system.mem_ctrls1.perBankRdBursts::10            4522                       # Per bank write bursts
system.mem_ctrls1.perBankRdBursts::11            4727                       # Per bank write bursts
system.mem_ctrls1.perBankRdBursts::12            4493                       # Per bank write bursts
system.mem_ctrls1.perBankRdBursts::13            4569                       # Per bank write bursts
system.mem_ctrls1.perBankRdBursts::14            4636                       # Per bank write bursts
system.mem_ctrls1.perBankRdBursts::15            4738                       # Per bank write bursts
system.mem_ctrls1.perBankWrBursts::0             3569                       # Per bank write bursts
system.mem_ctrls1.perBankWrBursts::1             3521                       # Per bank write bursts
system.mem_ctrls1.perBankWrBursts::2             3566                       # Per bank write bursts
system.mem_ctrls1.perBankWrBursts::3             3743                       # Per bank write bursts
system.mem_ctrls1.perBankWrBursts::4             3776                       # Per bank write bursts
system.mem_ctrls1.perBankWrBursts::5             4112                       # Per bank write bursts
system.mem_ctrls1.perBankWrBursts::6             3820                       # Per bank write bursts
system.mem_ctrls1.perBankWrBursts::7             4092                       # Per bank write bursts
system.mem_ctrls1.perBankWrBursts::8             3955                       # Per bank write bursts
system.mem_ctrls1.perBankWrBursts::9             4016                       # Per bank write bursts
system.mem_ctrls1.perBankWrBursts::10            3626                       # Per bank write bursts
system.mem_ctrls1.perBankWrBursts::11            3570                       # Per bank write bursts
system.mem_ctrls1.perBankWrBursts::12            3725                       # Per bank write bursts
system.mem_ctrls1.perBankWrBursts::13            3839                       # Per bank write bursts
system.mem_ctrls1.perBankWrBursts::14            3912                       # Per bank write bursts
system.mem_ctrls1.perBankWrBursts::15            3851                       # Per bank write bursts
system.mem_ctrls1.numRdRetry                      246                       # Number of times read queue was full causing retry
system.mem_ctrls1.numWrRetry                      942                       # Number of times write queue was full causing retry
system.mem_ctrls1.totGap                  35835139500                       # Total gap between requests
system.mem_ctrls1.readPktSize::0                    0                       # Read request sizes (log2)
system.mem_ctrls1.readPktSize::1                    0                       # Read request sizes (log2)
system.mem_ctrls1.readPktSize::2                    0                       # Read request sizes (log2)
system.mem_ctrls1.readPktSize::3                    0                       # Read request sizes (log2)
system.mem_ctrls1.readPktSize::4                    0                       # Read request sizes (log2)
system.mem_ctrls1.readPktSize::5                    0                       # Read request sizes (log2)
system.mem_ctrls1.readPktSize::6                76247                       # Read request sizes (log2)
system.mem_ctrls1.writePktSize::0                   0                       # Write request sizes (log2)
system.mem_ctrls1.writePktSize::1                   0                       # Write request sizes (log2)
system.mem_ctrls1.writePktSize::2                   0                       # Write request sizes (log2)
system.mem_ctrls1.writePktSize::3                   0                       # Write request sizes (log2)
system.mem_ctrls1.writePktSize::4                   0                       # Write request sizes (log2)
system.mem_ctrls1.writePktSize::5                   0                       # Write request sizes (log2)
system.mem_ctrls1.writePktSize::6               60697                       # Write request sizes (log2)
system.mem_ctrls1.rdQLenPdf::0                  49289                       # What read queue length does an incoming req see
system.mem_ctrls1.rdQLenPdf::1                  10600                       # What read queue length does an incoming req see
system.mem_ctrls1.rdQLenPdf::2                   5377                       # What read queue length does an incoming req see
system.mem_ctrls1.rdQLenPdf::3                   2799                       # What read queue length does an incoming req see
system.mem_ctrls1.rdQLenPdf::4                   1591                       # What read queue length does an incoming req see
system.mem_ctrls1.rdQLenPdf::5                   1003                       # What read queue length does an incoming req see
system.mem_ctrls1.rdQLenPdf::6                    829                       # What read queue length does an incoming req see
system.mem_ctrls1.rdQLenPdf::7                    711                       # What read queue length does an incoming req see
system.mem_ctrls1.rdQLenPdf::8                    599                       # What read queue length does an incoming req see
system.mem_ctrls1.rdQLenPdf::9                    543                       # What read queue length does an incoming req see
system.mem_ctrls1.rdQLenPdf::10                   478                       # What read queue length does an incoming req see
system.mem_ctrls1.rdQLenPdf::11                   417                       # What read queue length does an incoming req see
system.mem_ctrls1.rdQLenPdf::12                   316                       # What read queue length does an incoming req see
system.mem_ctrls1.rdQLenPdf::13                   255                       # What read queue length does an incoming req see
system.mem_ctrls1.rdQLenPdf::14                   177                       # What read queue length does an incoming req see
system.mem_ctrls1.rdQLenPdf::15                   124                       # What read queue length does an incoming req see
system.mem_ctrls1.rdQLenPdf::16                    96                       # What read queue length does an incoming req see
system.mem_ctrls1.rdQLenPdf::17                    67                       # What read queue length does an incoming req see
system.mem_ctrls1.rdQLenPdf::18                    66                       # What read queue length does an incoming req see
system.mem_ctrls1.rdQLenPdf::19                    47                       # What read queue length does an incoming req see
system.mem_ctrls1.rdQLenPdf::20                    60                       # What read queue length does an incoming req see
system.mem_ctrls1.rdQLenPdf::21                    48                       # What read queue length does an incoming req see
system.mem_ctrls1.rdQLenPdf::22                    51                       # What read queue length does an incoming req see
system.mem_ctrls1.rdQLenPdf::23                    40                       # What read queue length does an incoming req see
system.mem_ctrls1.rdQLenPdf::24                    48                       # What read queue length does an incoming req see
system.mem_ctrls1.rdQLenPdf::25                    47                       # What read queue length does an incoming req see
system.mem_ctrls1.rdQLenPdf::26                    51                       # What read queue length does an incoming req see
system.mem_ctrls1.rdQLenPdf::27                    54                       # What read queue length does an incoming req see
system.mem_ctrls1.rdQLenPdf::28                    45                       # What read queue length does an incoming req see
system.mem_ctrls1.rdQLenPdf::29                    52                       # What read queue length does an incoming req see
system.mem_ctrls1.rdQLenPdf::30                    53                       # What read queue length does an incoming req see
system.mem_ctrls1.rdQLenPdf::31                   300                       # What read queue length does an incoming req see
system.mem_ctrls1.wrQLenPdf::0                  10244                       # What write queue length does an incoming req see
system.mem_ctrls1.wrQLenPdf::1                  11614                       # What write queue length does an incoming req see
system.mem_ctrls1.wrQLenPdf::2                  11830                       # What write queue length does an incoming req see
system.mem_ctrls1.wrQLenPdf::3                  11791                       # What write queue length does an incoming req see
system.mem_ctrls1.wrQLenPdf::4                  11489                       # What write queue length does an incoming req see
system.mem_ctrls1.wrQLenPdf::5                   1290                       # What write queue length does an incoming req see
system.mem_ctrls1.wrQLenPdf::6                    897                       # What write queue length does an incoming req see
system.mem_ctrls1.wrQLenPdf::7                   1542                       # What write queue length does an incoming req see
system.mem_ctrls1.bytesPerActivate::samples        55808                       # Bytes accessed per row activation
system.mem_ctrls1.bytesPerActivate::mean   157.002294                       # Bytes accessed per row activation
system.mem_ctrls1.bytesPerActivate::gmean   112.110660                       # Bytes accessed per row activation
system.mem_ctrls1.bytesPerActivate::stdev   168.514393                       # Bytes accessed per row activation
system.mem_ctrls1.bytesPerActivate::0-127        31167     55.85%     55.85% # Bytes accessed per row activation
system.mem_ctrls1.bytesPerActivate::128-255        13149     23.56%     79.41% # Bytes accessed per row activation
system.mem_ctrls1.bytesPerActivate::256-383         6932     12.42%     91.83% # Bytes accessed per row activation
system.mem_ctrls1.bytesPerActivate::384-511         1735      3.11%     94.94% # Bytes accessed per row activation
system.mem_ctrls1.bytesPerActivate::512-639          996      1.78%     96.72% # Bytes accessed per row activation
system.mem_ctrls1.bytesPerActivate::640-767          583      1.04%     97.77% # Bytes accessed per row activation
system.mem_ctrls1.bytesPerActivate::768-895          409      0.73%     98.50% # Bytes accessed per row activation
system.mem_ctrls1.bytesPerActivate::896-1023          254      0.46%     98.96% # Bytes accessed per row activation
system.mem_ctrls1.bytesPerActivate::1024-1151          583      1.04%    100.00% # Bytes accessed per row activation
system.mem_ctrls1.bytesPerActivate::total        55808                       # Bytes accessed per row activation
system.mem_ctrls1.rdPerTurnAround::samples        10456                       # Reads before turning the bus around for writes
system.mem_ctrls1.rdPerTurnAround::mean      7.289977                       # Reads before turning the bus around for writes
system.mem_ctrls1.rdPerTurnAround::stdev    31.162803                       # Reads before turning the bus around for writes
system.mem_ctrls1.rdPerTurnAround::0-127        10451     99.95%     99.95% # Reads before turning the bus around for writes
system.mem_ctrls1.rdPerTurnAround::128-255            3      0.03%     99.98% # Reads before turning the bus around for writes
system.mem_ctrls1.rdPerTurnAround::1152-1279            1      0.01%     99.99% # Reads before turning the bus around for writes
system.mem_ctrls1.rdPerTurnAround::2816-2943            1      0.01%    100.00% # Reads before turning the bus around for writes
system.mem_ctrls1.rdPerTurnAround::total        10456                       # Reads before turning the bus around for writes
system.mem_ctrls1.wrPerTurnAround::samples        10456                       # Writes before turning the bus around for reads
system.mem_ctrls1.wrPerTurnAround::mean      5.804610                       # Writes before turning the bus around for reads
system.mem_ctrls1.wrPerTurnAround::gmean     5.568987                       # Writes before turning the bus around for reads
system.mem_ctrls1.wrPerTurnAround::stdev     2.180032                       # Writes before turning the bus around for reads
system.mem_ctrls1.wrPerTurnAround::4-7           9550     91.34%     91.34% # Writes before turning the bus around for reads
system.mem_ctrls1.wrPerTurnAround::8-11           441      4.22%     95.55% # Writes before turning the bus around for reads
system.mem_ctrls1.wrPerTurnAround::12-15          199      1.90%     97.46% # Writes before turning the bus around for reads
system.mem_ctrls1.wrPerTurnAround::16-19          266      2.54%    100.00% # Writes before turning the bus around for reads
system.mem_ctrls1.wrPerTurnAround::total        10456                       # Writes before turning the bus around for reads
system.mem_ctrls1.totQLat                  3282388404                       # Total ticks spent queuing
system.mem_ctrls1.totMemAccLat             4711757154                       # Total ticks spent from burst creation until serviced by the DRAM
system.mem_ctrls1.totBusLat                 381165000                       # Total ticks spent in databus transfers
system.mem_ctrls1.avgQLat                    43057.32                       # Average queueing delay per DRAM burst
system.mem_ctrls1.avgBusLat                   5000.00                       # Average bus latency per DRAM burst
system.mem_ctrls1.avgMemAccLat               61807.32                       # Average memory access latency per DRAM burst
system.mem_ctrls1.avgRdBW                      136.15                       # Average DRAM read bandwidth in MiByte/s
system.mem_ctrls1.avgWrBW                      108.39                       # Average achieved write bandwidth in MiByte/s
system.mem_ctrls1.avgRdBWSys                   136.17                       # Average system read bandwidth in MiByte/s
system.mem_ctrls1.avgWrBWSys                   108.40                       # Average system write bandwidth in MiByte/s
system.mem_ctrls1.peakBW                     12800.00                       # Theoretical peak bandwidth in MiByte/s
system.mem_ctrls1.busUtil                        1.91                       # Data bus utilization in percentage
system.mem_ctrls1.busUtilRead                    1.06                       # Data bus utilization in percentage for reads
system.mem_ctrls1.busUtilWrite                   0.85                       # Data bus utilization in percentage for writes
system.mem_ctrls1.avgRdQLen                      1.12                       # Average read queue length when enqueuing
system.mem_ctrls1.avgWrQLen                      2.91                       # Average write queue length when enqueuing
system.mem_ctrls1.readRowHits                   50238                       # Number of row buffer hits during reads
system.mem_ctrls1.writeRowHits                  30869                       # Number of row buffer hits during writes
system.mem_ctrls1.readRowHitRate                65.90                       # Row buffer hit rate for reads
system.mem_ctrls1.writeRowHitRate               50.86                       # Row buffer hit rate for writes
system.mem_ctrls1.avgGap                    261677.32                       # Average gap between requests
system.mem_ctrls1.pageHitRate                   59.23                       # Row buffer hit rate, read and write combined
system.mem_ctrls1.memoryStateTime::IDLE    8761775500                       # Time in different power states
system.mem_ctrls1.memoryStateTime::REF     1196520000                       # Time in different power states
system.mem_ctrls1.memoryStateTime::PRE_PDN            0                       # Time in different power states
system.mem_ctrls1.memoryStateTime::ACT    25874300750                       # Time in different power states
system.mem_ctrls1.memoryStateTime::ACT_PDN            0                       # Time in different power states
system.mem_ctrls1.actEnergy::0              211589280                       # Energy for activate commands per rank (pJ)
system.mem_ctrls1.actEnergy::1              210266280                       # Energy for activate commands per rank (pJ)
system.mem_ctrls1.preEnergy::0              115450500                       # Energy for precharge commands per rank (pJ)
system.mem_ctrls1.preEnergy::1              114728625                       # Energy for precharge commands per rank (pJ)
system.mem_ctrls1.readEnergy::0             300463800                       # Energy for read commands per rank (pJ)
system.mem_ctrls1.readEnergy::1             293997600                       # Energy for read commands per rank (pJ)
system.mem_ctrls1.writeEnergy::0            195689520                       # Energy for write commands per rank (pJ)
system.mem_ctrls1.writeEnergy::1            197536320                       # Energy for write commands per rank (pJ)
system.mem_ctrls1.refreshEnergy::0         2340393120                       # Energy for refresh commands per rank (pJ)
system.mem_ctrls1.refreshEnergy::1         2340393120                       # Energy for refresh commands per rank (pJ)
system.mem_ctrls1.actBackEnergy::0        13827411405                       # Energy for active background per rank (pJ)
system.mem_ctrls1.actBackEnergy::1        13085102115                       # Energy for active background per rank (pJ)
system.mem_ctrls1.preBackEnergy::0         9370241250                       # Energy for precharge background per rank (pJ)
system.mem_ctrls1.preBackEnergy::1        10021389750                       # Energy for precharge background per rank (pJ)
system.mem_ctrls1.totalEnergy::0          26361238875                       # Total energy per rank (pJ)
system.mem_ctrls1.totalEnergy::1          26263413810                       # Total energy per rank (pJ)
system.mem_ctrls1.averagePower::0          735.677895                       # Core power per rank (mW)
system.mem_ctrls1.averagePower::1          732.947836                       # Core power per rank (mW)
system.mem_ctrls2.bytes_read::ruby.dir_cntrl2      4880384                       # Number of bytes read from this memory
system.mem_ctrls2.bytes_read::total           4880384                       # Number of bytes read from this memory
system.mem_ctrls2.bytes_written::ruby.dir_cntrl2      3885248                       # Number of bytes written to this memory
system.mem_ctrls2.bytes_written::total        3885248                       # Number of bytes written to this memory
system.mem_ctrls2.num_reads::ruby.dir_cntrl2        76256                       # Number of read requests responded to by this memory
system.mem_ctrls2.num_reads::total              76256                       # Number of read requests responded to by this memory
system.mem_ctrls2.num_writes::ruby.dir_cntrl2        60707                       # Number of write requests responded to by this memory
system.mem_ctrls2.num_writes::total             60707                       # Number of write requests responded to by this memory
system.mem_ctrls2.bw_read::ruby.dir_cntrl2    136187437                       # Total read bandwidth from this memory (bytes/s)
system.mem_ctrls2.bw_read::total            136187437                       # Total read bandwidth from this memory (bytes/s)
system.mem_ctrls2.bw_write::ruby.dir_cntrl2    108418102                       # Write bandwidth from this memory (bytes/s)
system.mem_ctrls2.bw_write::total           108418102                       # Write bandwidth from this memory (bytes/s)
system.mem_ctrls2.bw_total::ruby.dir_cntrl2    244605539                       # Total bandwidth to/from this memory (bytes/s)
system.mem_ctrls2.bw_total::total           244605539                       # Total bandwidth to/from this memory (bytes/s)
system.mem_ctrls2.readReqs                      76256                       # Number of read requests accepted
system.mem_ctrls2.writeReqs                     60707                       # Number of write requests accepted
system.mem_ctrls2.readBursts                    76256                       # Number of DRAM read bursts, including those serviced by the write queue
system.mem_ctrls2.writeBursts                   60707                       # Number of DRAM write bursts, including those merged in the write queue
system.mem_ctrls2.bytesReadDRAM               4879360                       # Total number of bytes read from DRAM
system.mem_ctrls2.bytesReadWrQ                   1024                       # Total number of bytes read from write queue
system.mem_ctrls2.bytesWritten                3885120                       # Total number of bytes written to DRAM
system.mem_ctrls2.bytesReadSys                4880384                       # Total read bytes from the system interface side
system.mem_ctrls2.bytesWrittenSys             3885248                       # Total written bytes from the system interface side
system.mem_ctrls2.servicedByWrQ                    16                       # Number of DRAM read bursts serviced by the write queue
system.mem_ctrls2.mergedWrBursts                    0                       # Number of DRAM write bursts merged with an existing one
system.mem_ctrls2.neitherReadNorWriteReqs            0                       # Number of requests that are neither read nor write
system.mem_ctrls2.perBankRdBursts::0             4318                       # Per bank write bursts
system.mem_ctrls2.perBankRdBursts::1             4750                       # Per bank write bursts
system.mem_ctrls2.perBankRdBursts::2             4475                       # Per bank write bursts
system.mem_ctrls2.perBankRdBursts::3             4903                       # Per bank write bursts
system.mem_ctrls2.perBankRdBursts::4             4775                       # Per bank write bursts
system.mem_ctrls2.perBankRdBursts::5             5293                       # Per bank write bursts
system.mem_ctrls2.perBankRdBursts::6             4858                       # Per bank write bursts
system.mem_ctrls2.perBankRdBursts::7             5157                       # Per bank write bursts
system.mem_ctrls2.perBankRdBursts::8             4920                       # Per bank write bursts
system.mem_ctrls2.perBankRdBursts::9             5094                       # Per bank write bursts
system.mem_ctrls2.perBankRdBursts::10            4528                       # Per bank write bursts
system.mem_ctrls2.perBankRdBursts::11            4767                       # Per bank write bursts
system.mem_ctrls2.perBankRdBursts::12            4492                       # Per bank write bursts
system.mem_ctrls2.perBankRdBursts::13            4536                       # Per bank write bursts
system.mem_ctrls2.perBankRdBursts::14            4623                       # Per bank write bursts
system.mem_ctrls2.perBankRdBursts::15            4751                       # Per bank write bursts
system.mem_ctrls2.perBankWrBursts::0             3572                       # Per bank write bursts
system.mem_ctrls2.perBankWrBursts::1             3526                       # Per bank write bursts
system.mem_ctrls2.perBankWrBursts::2             3567                       # Per bank write bursts
system.mem_ctrls2.perBankWrBursts::3             3732                       # Per bank write bursts
system.mem_ctrls2.perBankWrBursts::4             3771                       # Per bank write bursts
system.mem_ctrls2.perBankWrBursts::5             4108                       # Per bank write bursts
system.mem_ctrls2.perBankWrBursts::6             3826                       # Per bank write bursts
system.mem_ctrls2.perBankWrBursts::7             4100                       # Per bank write bursts
system.mem_ctrls2.perBankWrBursts::8             3957                       # Per bank write bursts
system.mem_ctrls2.perBankWrBursts::9             4025                       # Per bank write bursts
system.mem_ctrls2.perBankWrBursts::10            3630                       # Per bank write bursts
system.mem_ctrls2.perBankWrBursts::11            3576                       # Per bank write bursts
system.mem_ctrls2.perBankWrBursts::12            3728                       # Per bank write bursts
system.mem_ctrls2.perBankWrBursts::13            3829                       # Per bank write bursts
system.mem_ctrls2.perBankWrBursts::14            3909                       # Per bank write bursts
system.mem_ctrls2.perBankWrBursts::15            3849                       # Per bank write bursts
system.mem_ctrls2.numRdRetry                      151                       # Number of times read queue was full causing retry
system.mem_ctrls2.numWrRetry                      875                       # Number of times write queue was full causing retry
system.mem_ctrls2.totGap                  35835544500                       # Total gap between requests
system.mem_ctrls2.readPktSize::0                    0                       # Read request sizes (log2)
system.mem_ctrls2.readPktSize::1                    0                       # Read request sizes (log2)
system.mem_ctrls2.readPktSize::2                    0                       # Read request sizes (log2)
system.mem_ctrls2.readPktSize::3                    0                       # Read request sizes (log2)
system.mem_ctrls2.readPktSize::4                    0                       # Read request sizes (log2)
system.mem_ctrls2.readPktSize::5                    0                       # Read request sizes (log2)
system.mem_ctrls2.readPktSize::6                76256                       # Read request sizes (log2)
system.mem_ctrls2.writePktSize::0                   0                       # Write request sizes (log2)
system.mem_ctrls2.writePktSize::1                   0                       # Write request sizes (log2)
system.mem_ctrls2.writePktSize::2                   0                       # Write request sizes (log2)
system.mem_ctrls2.writePktSize::3                   0                       # Write request sizes (log2)
system.mem_ctrls2.writePktSize::4                   0                       # Write request sizes (log2)
system.mem_ctrls2.writePktSize::5                   0                       # Write request sizes (log2)
system.mem_ctrls2.writePktSize::6               60707                       # Write request sizes (log2)
system.mem_ctrls2.rdQLenPdf::0                  49354                       # What read queue length does an incoming req see
system.mem_ctrls2.rdQLenPdf::1                  10712                       # What read queue length does an incoming req see
system.mem_ctrls2.rdQLenPdf::2                   5404                       # What read queue length does an incoming req see
system.mem_ctrls2.rdQLenPdf::3                   2840                       # What read queue length does an incoming req see
system.mem_ctrls2.rdQLenPdf::4                   1603                       # What read queue length does an incoming req see
system.mem_ctrls2.rdQLenPdf::5                   1045                       # What read queue length does an incoming req see
system.mem_ctrls2.rdQLenPdf::6                    813                       # What read queue length does an incoming req see
system.mem_ctrls2.rdQLenPdf::7                    663                       # What read queue length does an incoming req see
system.mem_ctrls2.rdQLenPdf::8                    605                       # What read queue length does an incoming req see
system.mem_ctrls2.rdQLenPdf::9                    526                       # What read queue length does an incoming req see
system.mem_ctrls2.rdQLenPdf::10                   453                       # What read queue length does an incoming req see
system.mem_ctrls2.rdQLenPdf::11                   383                       # What read queue length does an incoming req see
system.mem_ctrls2.rdQLenPdf::12                   333                       # What read queue length does an incoming req see
system.mem_ctrls2.rdQLenPdf::13                   258                       # What read queue length does an incoming req see
system.mem_ctrls2.rdQLenPdf::14                   197                       # What read queue length does an incoming req see
system.mem_ctrls2.rdQLenPdf::15                   142                       # What read queue length does an incoming req see
system.mem_ctrls2.rdQLenPdf::16                    98                       # What read queue length does an incoming req see
system.mem_ctrls2.rdQLenPdf::17                    82                       # What read queue length does an incoming req see
system.mem_ctrls2.rdQLenPdf::18                    68                       # What read queue length does an incoming req see
system.mem_ctrls2.rdQLenPdf::19                    51                       # What read queue length does an incoming req see
system.mem_ctrls2.rdQLenPdf::20                    52                       # What read queue length does an incoming req see
system.mem_ctrls2.rdQLenPdf::21                    53                       # What read queue length does an incoming req see
system.mem_ctrls2.rdQLenPdf::22                    42                       # What read queue length does an incoming req see
system.mem_ctrls2.rdQLenPdf::23                    44                       # What read queue length does an incoming req see
system.mem_ctrls2.rdQLenPdf::24                    43                       # What read queue length does an incoming req see
system.mem_ctrls2.rdQLenPdf::25                    43                       # What read queue length does an incoming req see
system.mem_ctrls2.rdQLenPdf::26                    34                       # What read queue length does an incoming req see
system.mem_ctrls2.rdQLenPdf::27                    35                       # What read queue length does an incoming req see
system.mem_ctrls2.rdQLenPdf::28                    28                       # What read queue length does an incoming req see
system.mem_ctrls2.rdQLenPdf::29                    22                       # What read queue length does an incoming req see
system.mem_ctrls2.rdQLenPdf::30                    33                       # What read queue length does an incoming req see
system.mem_ctrls2.rdQLenPdf::31                   181                       # What read queue length does an incoming req see
system.mem_ctrls2.wrQLenPdf::0                  10250                       # What write queue length does an incoming req see
system.mem_ctrls2.wrQLenPdf::1                  11555                       # What write queue length does an incoming req see
system.mem_ctrls2.wrQLenPdf::2                  11856                       # What write queue length does an incoming req see
system.mem_ctrls2.wrQLenPdf::3                  11771                       # What write queue length does an incoming req see
system.mem_ctrls2.wrQLenPdf::4                  11495                       # What write queue length does an incoming req see
system.mem_ctrls2.wrQLenPdf::5                   1356                       # What write queue length does an incoming req see
system.mem_ctrls2.wrQLenPdf::6                    911                       # What write queue length does an incoming req see
system.mem_ctrls2.wrQLenPdf::7                   1513                       # What write queue length does an incoming req see
system.mem_ctrls2.bytesPerActivate::samples        55849                       # Bytes accessed per row activation
system.mem_ctrls2.bytesPerActivate::mean   156.914537                       # Bytes accessed per row activation
system.mem_ctrls2.bytesPerActivate::gmean   112.084750                       # Bytes accessed per row activation
system.mem_ctrls2.bytesPerActivate::stdev   168.362568                       # Bytes accessed per row activation
system.mem_ctrls2.bytesPerActivate::0-127        31226     55.91%     55.91% # Bytes accessed per row activation
system.mem_ctrls2.bytesPerActivate::128-255        13095     23.45%     79.36% # Bytes accessed per row activation
system.mem_ctrls2.bytesPerActivate::256-383         7023     12.57%     91.93% # Bytes accessed per row activation
system.mem_ctrls2.bytesPerActivate::384-511         1657      2.97%     94.90% # Bytes accessed per row activation
system.mem_ctrls2.bytesPerActivate::512-639         1000      1.79%     96.69% # Bytes accessed per row activation
system.mem_ctrls2.bytesPerActivate::640-767          604      1.08%     97.77% # Bytes accessed per row activation
system.mem_ctrls2.bytesPerActivate::768-895          410      0.73%     98.51% # Bytes accessed per row activation
system.mem_ctrls2.bytesPerActivate::896-1023          248      0.44%     98.95% # Bytes accessed per row activation
system.mem_ctrls2.bytesPerActivate::1024-1151          586      1.05%    100.00% # Bytes accessed per row activation
system.mem_ctrls2.bytesPerActivate::total        55849                       # Bytes accessed per row activation
system.mem_ctrls2.rdPerTurnAround::samples        10468                       # Reads before turning the bus around for writes
system.mem_ctrls2.rdPerTurnAround::mean      7.282480                       # Reads before turning the bus around for writes
system.mem_ctrls2.rdPerTurnAround::stdev    31.221898                       # Reads before turning the bus around for writes
system.mem_ctrls2.rdPerTurnAround::0-127        10463     99.95%     99.95% # Reads before turning the bus around for writes
system.mem_ctrls2.rdPerTurnAround::128-255            3      0.03%     99.98% # Reads before turning the bus around for writes
system.mem_ctrls2.rdPerTurnAround::1152-1279            1      0.01%     99.99% # Reads before turning the bus around for writes
system.mem_ctrls2.rdPerTurnAround::2816-2943            1      0.01%    100.00% # Reads before turning the bus around for writes
system.mem_ctrls2.rdPerTurnAround::total        10468                       # Reads before turning the bus around for writes
system.mem_ctrls2.wrPerTurnAround::samples        10468                       # Writes before turning the bus around for reads
system.mem_ctrls2.wrPerTurnAround::mean      5.799102                       # Writes before turning the bus around for reads
system.mem_ctrls2.wrPerTurnAround::gmean     5.562990                       # Writes before turning the bus around for reads
system.mem_ctrls2.wrPerTurnAround::stdev     2.184053                       # Writes before turning the bus around for reads
system.mem_ctrls2.wrPerTurnAround::4-7           9554     91.27%     91.27% # Writes before turning the bus around for reads
system.mem_ctrls2.wrPerTurnAround::8-11           461      4.40%     95.67% # Writes before turning the bus around for reads
system.mem_ctrls2.wrPerTurnAround::12-15          183      1.75%     97.42% # Writes before turning the bus around for reads
system.mem_ctrls2.wrPerTurnAround::16-19          270      2.58%    100.00% # Writes before turning the bus around for reads
system.mem_ctrls2.wrPerTurnAround::total        10468                       # Writes before turning the bus around for reads
system.mem_ctrls2.totQLat                  3175339311                       # Total ticks spent queuing
system.mem_ctrls2.totMemAccLat             4604839311                       # Total ticks spent from burst creation until serviced by the DRAM
system.mem_ctrls2.totBusLat                 381200000                       # Total ticks spent in databus transfers
system.mem_ctrls2.avgQLat                    41649.26                       # Average queueing delay per DRAM burst
system.mem_ctrls2.avgBusLat                   5000.00                       # Average bus latency per DRAM burst
system.mem_ctrls2.avgMemAccLat               60399.26                       # Average memory access latency per DRAM burst
system.mem_ctrls2.avgRdBW                      136.16                       # Average DRAM read bandwidth in MiByte/s
system.mem_ctrls2.avgWrBW                      108.41                       # Average achieved write bandwidth in MiByte/s
system.mem_ctrls2.avgRdBWSys                   136.19                       # Average system read bandwidth in MiByte/s
system.mem_ctrls2.avgWrBWSys                   108.42                       # Average system write bandwidth in MiByte/s
system.mem_ctrls2.peakBW                     12800.00                       # Theoretical peak bandwidth in MiByte/s
system.mem_ctrls2.busUtil                        1.91                       # Data bus utilization in percentage
system.mem_ctrls2.busUtilRead                    1.06                       # Data bus utilization in percentage for reads
system.mem_ctrls2.busUtilWrite                   0.85                       # Data bus utilization in percentage for writes
system.mem_ctrls2.avgRdQLen                      1.12                       # Average read queue length when enqueuing
system.mem_ctrls2.avgWrQLen                      2.93                       # Average write queue length when enqueuing
system.mem_ctrls2.readRowHits                   50197                       # Number of row buffer hits during reads
system.mem_ctrls2.writeRowHits                  30892                       # Number of row buffer hits during writes
system.mem_ctrls2.readRowHitRate                65.84                       # Row buffer hit rate for reads
system.mem_ctrls2.writeRowHitRate               50.89                       # Row buffer hit rate for writes
system.mem_ctrls2.avgGap                    261643.98                       # Average gap between requests
system.mem_ctrls2.pageHitRate                   59.21                       # Row buffer hit rate, read and write combined
system.mem_ctrls2.memoryStateTime::IDLE    8744609750                       # Time in different power states
system.mem_ctrls2.memoryStateTime::REF     1196520000                       # Time in different power states
system.mem_ctrls2.memoryStateTime::PRE_PDN            0                       # Time in different power states
system.mem_ctrls2.memoryStateTime::ACT    25891466500                       # Time in different power states
system.mem_ctrls2.memoryStateTime::ACT_PDN            0                       # Time in different power states
system.mem_ctrls2.actEnergy::0              211778280                       # Energy for activate commands per rank (pJ)
system.mem_ctrls2.actEnergy::1              210409920                       # Energy for activate commands per rank (pJ)
system.mem_ctrls2.preEnergy::0              115553625                       # Energy for precharge commands per rank (pJ)
system.mem_ctrls2.preEnergy::1              114807000                       # Energy for precharge commands per rank (pJ)
system.mem_ctrls2.readEnergy::0             300448200                       # Energy for read commands per rank (pJ)
system.mem_ctrls2.readEnergy::1             294114600                       # Energy for read commands per rank (pJ)
system.mem_ctrls2.writeEnergy::0            195708960                       # Energy for write commands per rank (pJ)
system.mem_ctrls2.writeEnergy::1            197627040                       # Energy for write commands per rank (pJ)
system.mem_ctrls2.refreshEnergy::0         2340393120                       # Energy for refresh commands per rank (pJ)
system.mem_ctrls2.refreshEnergy::1         2340393120                       # Energy for refresh commands per rank (pJ)
system.mem_ctrls2.actBackEnergy::0        13709157210                       # Energy for active background per rank (pJ)
system.mem_ctrls2.actBackEnergy::1        13218804450                       # Energy for active background per rank (pJ)
system.mem_ctrls2.preBackEnergy::0         9473973000                       # Energy for precharge background per rank (pJ)
system.mem_ctrls2.preBackEnergy::1         9904107000                       # Energy for precharge background per rank (pJ)
system.mem_ctrls2.totalEnergy::0          26347012395                       # Total energy per rank (pJ)
system.mem_ctrls2.totalEnergy::1          26280263130                       # Total energy per rank (pJ)
system.mem_ctrls2.averagePower::0          735.280869                       # Core power per rank (mW)
system.mem_ctrls2.averagePower::1          733.418060                       # Core power per rank (mW)
system.mem_ctrls3.bytes_read::ruby.dir_cntrl3      4855552                       # Number of bytes read from this memory
system.mem_ctrls3.bytes_read::total           4855552                       # Number of bytes read from this memory
system.mem_ctrls3.bytes_written::ruby.dir_cntrl3      3877696                       # Number of bytes written to this memory
system.mem_ctrls3.bytes_written::total        3877696                       # Number of bytes written to this memory
system.mem_ctrls3.num_reads::ruby.dir_cntrl3        75868                       # Number of read requests responded to by this memory
system.mem_ctrls3.num_reads::total              75868                       # Number of read requests responded to by this memory
system.mem_ctrls3.num_writes::ruby.dir_cntrl3        60589                       # Number of write requests responded to by this memory
system.mem_ctrls3.num_writes::total             60589                       # Number of write requests responded to by this memory
system.mem_ctrls3.bw_read::ruby.dir_cntrl3    135494499                       # Total read bandwidth from this memory (bytes/s)
system.mem_ctrls3.bw_read::total            135494499                       # Total read bandwidth from this memory (bytes/s)
system.mem_ctrls3.bw_write::ruby.dir_cntrl3    108207363                       # Write bandwidth from this memory (bytes/s)
system.mem_ctrls3.bw_write::total           108207363                       # Write bandwidth from this memory (bytes/s)
system.mem_ctrls3.bw_total::ruby.dir_cntrl3    243701861                       # Total bandwidth to/from this memory (bytes/s)
system.mem_ctrls3.bw_total::total           243701861                       # Total bandwidth to/from this memory (bytes/s)
system.mem_ctrls3.readReqs                      75870                       # Number of read requests accepted
system.mem_ctrls3.writeReqs                     60589                       # Number of write requests accepted
system.mem_ctrls3.readBursts                    75870                       # Number of DRAM read bursts, including those serviced by the write queue
system.mem_ctrls3.writeBursts                   60589                       # Number of DRAM write bursts, including those merged in the write queue
system.mem_ctrls3.bytesReadDRAM               4855104                       # Total number of bytes read from DRAM
system.mem_ctrls3.bytesReadWrQ                    576                       # Total number of bytes read from write queue
system.mem_ctrls3.bytesWritten                3877504                       # Total number of bytes written to DRAM
system.mem_ctrls3.bytesReadSys                4855680                       # Total read bytes from the system interface side
system.mem_ctrls3.bytesWrittenSys             3877696                       # Total written bytes from the system interface side
system.mem_ctrls3.servicedByWrQ                     9                       # Number of DRAM read bursts serviced by the write queue
system.mem_ctrls3.mergedWrBursts                    0                       # Number of DRAM write bursts merged with an existing one
system.mem_ctrls3.neitherReadNorWriteReqs            0                       # Number of requests that are neither read nor write
system.mem_ctrls3.perBankRdBursts::0             4295                       # Per bank write bursts
system.mem_ctrls3.perBankRdBursts::1             4718                       # Per bank write bursts
system.mem_ctrls3.perBankRdBursts::2             4417                       # Per bank write bursts
system.mem_ctrls3.perBankRdBursts::3             4859                       # Per bank write bursts
system.mem_ctrls3.perBankRdBursts::4             4731                       # Per bank write bursts
system.mem_ctrls3.perBankRdBursts::5             5236                       # Per bank write bursts
system.mem_ctrls3.perBankRdBursts::6             4864                       # Per bank write bursts
system.mem_ctrls3.perBankRdBursts::7             5141                       # Per bank write bursts
system.mem_ctrls3.perBankRdBursts::8             4911                       # Per bank write bursts
system.mem_ctrls3.perBankRdBursts::9             5075                       # Per bank write bursts
system.mem_ctrls3.perBankRdBursts::10            4523                       # Per bank write bursts
system.mem_ctrls3.perBankRdBursts::11            4730                       # Per bank write bursts
system.mem_ctrls3.perBankRdBursts::12            4478                       # Per bank write bursts
system.mem_ctrls3.perBankRdBursts::13            4513                       # Per bank write bursts
system.mem_ctrls3.perBankRdBursts::14            4642                       # Per bank write bursts
system.mem_ctrls3.perBankRdBursts::15            4728                       # Per bank write bursts
system.mem_ctrls3.perBankWrBursts::0             3567                       # Per bank write bursts
system.mem_ctrls3.perBankWrBursts::1             3519                       # Per bank write bursts
system.mem_ctrls3.perBankWrBursts::2             3552                       # Per bank write bursts
system.mem_ctrls3.perBankWrBursts::3             3718                       # Per bank write bursts
system.mem_ctrls3.perBankWrBursts::4             3766                       # Per bank write bursts
system.mem_ctrls3.perBankWrBursts::5             4090                       # Per bank write bursts
system.mem_ctrls3.perBankWrBursts::6             3818                       # Per bank write bursts
system.mem_ctrls3.perBankWrBursts::7             4084                       # Per bank write bursts
system.mem_ctrls3.perBankWrBursts::8             3950                       # Per bank write bursts
system.mem_ctrls3.perBankWrBursts::9             4026                       # Per bank write bursts
system.mem_ctrls3.perBankWrBursts::10            3616                       # Per bank write bursts
system.mem_ctrls3.perBankWrBursts::11            3580                       # Per bank write bursts
system.mem_ctrls3.perBankWrBursts::12            3723                       # Per bank write bursts
system.mem_ctrls3.perBankWrBursts::13            3832                       # Per bank write bursts
system.mem_ctrls3.perBankWrBursts::14            3905                       # Per bank write bursts
system.mem_ctrls3.perBankWrBursts::15            3840                       # Per bank write bursts
system.mem_ctrls3.numRdRetry                      244                       # Number of times read queue was full causing retry
system.mem_ctrls3.numWrRetry                      833                       # Number of times write queue was full causing retry
system.mem_ctrls3.totGap                  35835036000                       # Total gap between requests
system.mem_ctrls3.readPktSize::0                    0                       # Read request sizes (log2)
system.mem_ctrls3.readPktSize::1                    0                       # Read request sizes (log2)
system.mem_ctrls3.readPktSize::2                    0                       # Read request sizes (log2)
system.mem_ctrls3.readPktSize::3                    0                       # Read request sizes (log2)
system.mem_ctrls3.readPktSize::4                    0                       # Read request sizes (log2)
system.mem_ctrls3.readPktSize::5                    0                       # Read request sizes (log2)
system.mem_ctrls3.readPktSize::6                75870                       # Read request sizes (log2)
system.mem_ctrls3.writePktSize::0                   0                       # Write request sizes (log2)
system.mem_ctrls3.writePktSize::1                   0                       # Write request sizes (log2)
system.mem_ctrls3.writePktSize::2                   0                       # Write request sizes (log2)
system.mem_ctrls3.writePktSize::3                   0                       # Write request sizes (log2)
system.mem_ctrls3.writePktSize::4                   0                       # Write request sizes (log2)
system.mem_ctrls3.writePktSize::5                   0                       # Write request sizes (log2)
system.mem_ctrls3.writePktSize::6               60589                       # Write request sizes (log2)
system.mem_ctrls3.rdQLenPdf::0                  48911                       # What read queue length does an incoming req see
system.mem_ctrls3.rdQLenPdf::1                  10663                       # What read queue length does an incoming req see
system.mem_ctrls3.rdQLenPdf::2                   5487                       # What read queue length does an incoming req see
system.mem_ctrls3.rdQLenPdf::3                   2818                       # What read queue length does an incoming req see
system.mem_ctrls3.rdQLenPdf::4                   1569                       # What read queue length does an incoming req see
system.mem_ctrls3.rdQLenPdf::5                   1023                       # What read queue length does an incoming req see
system.mem_ctrls3.rdQLenPdf::6                    787                       # What read queue length does an incoming req see
system.mem_ctrls3.rdQLenPdf::7                    676                       # What read queue length does an incoming req see
system.mem_ctrls3.rdQLenPdf::8                    597                       # What read queue length does an incoming req see
system.mem_ctrls3.rdQLenPdf::9                    521                       # What read queue length does an incoming req see
system.mem_ctrls3.rdQLenPdf::10                   466                       # What read queue length does an incoming req see
system.mem_ctrls3.rdQLenPdf::11                   366                       # What read queue length does an incoming req see
system.mem_ctrls3.rdQLenPdf::12                   285                       # What read queue length does an incoming req see
system.mem_ctrls3.rdQLenPdf::13                   225                       # What read queue length does an incoming req see
system.mem_ctrls3.rdQLenPdf::14                   167                       # What read queue length does an incoming req see
system.mem_ctrls3.rdQLenPdf::15                   123                       # What read queue length does an incoming req see
system.mem_ctrls3.rdQLenPdf::16                    90                       # What read queue length does an incoming req see
system.mem_ctrls3.rdQLenPdf::17                    67                       # What read queue length does an incoming req see
system.mem_ctrls3.rdQLenPdf::18                    71                       # What read queue length does an incoming req see
system.mem_ctrls3.rdQLenPdf::19                    56                       # What read queue length does an incoming req see
system.mem_ctrls3.rdQLenPdf::20                    56                       # What read queue length does an incoming req see
system.mem_ctrls3.rdQLenPdf::21                    60                       # What read queue length does an incoming req see
system.mem_ctrls3.rdQLenPdf::22                    53                       # What read queue length does an incoming req see
system.mem_ctrls3.rdQLenPdf::23                    57                       # What read queue length does an incoming req see
system.mem_ctrls3.rdQLenPdf::24                    59                       # What read queue length does an incoming req see
[...]
system.ruby.L2Cache_Controller.MT_IIB.WB_Data::total       203568                      
system.ruby.L2Cache_Controller.MT_IIB.WB_Data_clean |         848      3.20%      3.20% |         837      3.16%      6.36% |         833      3.14%      9.50% |         821      3.10%     12.60% |         848      3.20%     15.80% |         836      3.15%     18.95% |         831      3.14%     22.09% |         826      3.12%     25.21% |         836      3.15%     28.36% |         818      3.09%     31.45% |         839      3.17%     34.61% |         811      3.06%     37.67% |         807      3.05%     40.72% |         826      3.12%     43.84% |         822      3.10%     46.94% |         828      3.12%     50.06% |         817      3.08%     53.15% |         822      3.10%     56.25% |         824      3.11%     59.36% |         822      3.10%     62.46% |         827      3.12%     65.58% |         805      3.04%     68.62% |         835      3.15%     71.77% |         816      3.08%     74.85% |         795      3.00%     77.85% |         820      3.09%     80.94% |         806      3.04%     83.98% |         845      3.19%     87.17% |         855      3.23%     90.40% |         838      3.16%     93.56% |         848      3.20%     96.76% |         859      3.24%    100.00%
system.ruby.L2Cache_Controller.MT_IIB.WB_Data_clean::total        26501                      
system.ruby.L2Cache_Controller.MT_IIB.Unblock |         113      1.28%      1.28% |         156      1.77%      3.06% |         233      2.65%      5.71% |         265      3.01%      8.72% |         163      1.85%     10.57% |         224      2.55%     13.12% |         241      2.74%     15.86% |         263      2.99%     18.85% |         323      3.67%     22.52% |         273      3.10%     25.62% |         311      3.54%     29.16% |         470      5.34%     34.50% |         367      4.17%     38.67% |         308      3.50%     42.17% |         464      5.27%     47.45% |         311      3.54%     50.98% |         335      3.81%     54.79% |         284      3.23%     58.02% |         162      1.84%     59.86% |         268      3.05%     62.91% |         298      3.39%     66.30% |         234      2.66%     68.96% |         250      2.84%     71.80% |         382      4.34%     76.14% |         440      5.00%     81.14% |         292      3.32%     84.46% |         296      3.36%     87.83% |         224      2.55%     90.37% |         204      2.32%     92.69% |         289      3.29%     95.98% |         177      2.01%     97.99% |         177      2.01%    100.00%
system.ruby.L2Cache_Controller.MT_IIB.Unblock::total         8797                      
system.ruby.L2Cache_Controller.MT_IB.L1_GETS |           0      0.00%      0.00% |           0      0.00%      0.00% |           0      0.00%      0.00% |           0      0.00%      0.00% |           0      0.00%      0.00% |           0      0.00%      0.00% |           0      0.00%      0.00% |           0      0.00%      0.00% |           1     25.00%     25.00% |           1     25.00%     50.00% |           1     25.00%     75.00% |           0      0.00%     75.00% |           0      0.00%     75.00% |           0      0.00%     75.00% |           0      0.00%     75.00% |           0      0.00%     75.00% |           0      0.00%     75.00% |           0      0.00%     75.00% |           0      0.00%     75.00% |           0      0.00%     75.00% |           0      0.00%     75.00% |           1     25.00%    100.00% |           0      0.00%    100.00% |           0      0.00%    100.00% |           0      0.00%    100.00% |           0      0.00%    100.00% |           0      0.00%    100.00% |           0      0.00%    100.00% |           0      0.00%    100.00% |           0      0.00%    100.00% |           0      0.00%    100.00% |           0      0.00%    100.00%
system.ruby.L2Cache_Controller.MT_IB.L1_GETS::total            4                      
system.ruby.L2Cache_Controller.MT_IB.L1_GETX |           0      0.00%      0.00% |           0      0.00%      0.00% |           0      0.00%      0.00% |           0      0.00%      0.00% |           0      0.00%      0.00% |           0      0.00%      0.00% |           0      0.00%      0.00% |           0      0.00%      0.00% |           0      0.00%      0.00% |           0      0.00%      0.00% |           0      0.00%      0.00% |           0      0.00%      0.00% |           0      0.00%      0.00% |           0      0.00%      0.00% |           0      0.00%      0.00% |           0      0.00%      0.00% |           0      0.00%      0.00% |           0      0.00%      0.00% |           0      0.00%      0.00% |           0      0.00%      0.00% |           0      0.00%      0.00% |           0      0.00%      0.00% |           1     50.00%     50.00% |           0      0.00%     50.00% |           0      0.00%     50.00% |           0      0.00%     50.00% |           0      0.00%     50.00% |           0      0.00%     50.00% |           1     50.00%    100.00% |           0      0.00%    100.00% |           0      0.00%    100.00% |           0      0.00%    100.00%
system.ruby.L2Cache_Controller.MT_IB.L1_GETX::total            2                      
system.ruby.L2Cache_Controller.MT_IB.L1_UPGRADE |           0      0.00%      0.00% |           1      1.15%      1.15% |           2      2.30%      3.45% |           2      2.30%      5.75% |           2      2.30%      8.05% |           3      3.45%     11.49% |           0      0.00%     11.49% |           1      1.15%     12.64% |           3      3.45%     16.09% |           2      2.30%     18.39% |           2      2.30%     20.69% |           3      3.45%     24.14% |           4      4.60%     28.74% |           4      4.60%     33.33% |           5      5.75%     39.08% |           3      3.45%     42.53% |           5      5.75%     48.28% |           3      3.45%     51.72% |           1      1.15%     52.87% |           1      1.15%     54.02% |           6      6.90%     60.92% |           2      2.30%     63.22% |           3      3.45%     66.67% |           7      8.05%     74.71% |           4      4.60%     79.31% |           3      3.45%     82.76% |           7      8.05%     90.80% |           3      3.45%     94.25% |           1      1.15%     95.40% |           2      2.30%     97.70% |           1      1.15%     98.85% |           1      1.15%    100.00%
system.ruby.L2Cache_Controller.MT_IB.L1_UPGRADE::total           87                      
system.ruby.L2Cache_Controller.MT_IB.WB_Data |         107      1.32%      1.32% |         145      1.79%      3.11% |         212      2.62%      5.73% |         241      2.98%      8.71% |         152      1.88%     10.58% |         199      2.46%     13.04% |         220      2.72%     15.76% |         246      3.04%     18.79% |         294      3.63%     22.43% |         256      3.16%     25.59% |         289      3.57%     29.16% |         424      5.24%     34.39% |         338      4.17%     38.57% |         285      3.52%     42.08% |         428      5.29%     47.37% |         293      3.62%     50.99% |         308      3.80%     54.79% |         255      3.15%     57.94% |         150      1.85%     59.79% |         247      3.05%     62.84% |         274      3.38%     66.23% |         223      2.75%     68.98% |         230      2.84%     71.82% |         358      4.42%     76.24% |         405      5.00%     81.24% |         259      3.20%     84.44% |         260      3.21%     87.65% |         211      2.61%     90.26% |         189      2.33%     92.59% |         267      3.30%     95.89% |         170      2.10%     97.99% |         163      2.01%    100.00%
system.ruby.L2Cache_Controller.MT_IB.WB_Data::total         8098                      
system.ruby.L2Cache_Controller.MT_IB.WB_Data_clean |           6      0.86%      0.86% |          11      1.57%      2.43% |          21      3.00%      5.44% |          24      3.43%      8.87% |          11      1.57%     10.44% |          25      3.58%     14.02% |          21      3.00%     17.02% |          17      2.43%     19.46% |          29      4.15%     23.61% |          17      2.43%     26.04% |          22      3.15%     29.18% |          46      6.58%     35.77% |          29      4.15%     39.91% |          23      3.29%     43.20% |          36      5.15%     48.35% |          18      2.58%     50.93% |          27      3.86%     54.79% |          29      4.15%     58.94% |          12      1.72%     60.66% |          21      3.00%     63.66% |          24      3.43%     67.10% |          11      1.57%     68.67% |          20      2.86%     71.53% |          24      3.43%     74.96% |          35      5.01%     79.97% |          33      4.72%     84.69% |          36      5.15%     89.84% |          13      1.86%     91.70% |          15      2.15%     93.85% |          22      3.15%     97.00% |           7      1.00%     98.00% |          14      2.00%    100.00%
system.ruby.L2Cache_Controller.MT_IB.WB_Data_clean::total          699                      
system.ruby.L2Cache_Controller.MT_SB.L1_GETS |          23      2.92%      2.92% |          26      3.30%      6.22% |          25      3.17%      9.39% |          34      4.31%     13.71% |          23      2.92%     16.62% |          28      3.55%     20.18% |          24      3.05%     23.22% |          31      3.93%     27.16% |          27      3.43%     30.58% |          21      2.66%     33.25% |          19      2.41%     35.66% |          22      2.79%     38.45% |          27      3.43%     41.88% |          27      3.43%     45.30% |          25      3.17%     48.48% |          21      2.66%     51.14% |          16      2.03%     53.17% |          32      4.06%     57.23% |          27      3.43%     60.66% |          22      2.79%     63.45% |          28      3.55%     67.01% |          33      4.19%     71.19% |          17      2.16%     73.35% |          16      2.03%     75.38% |          18      2.28%     77.66% |          25      3.17%     80.84% |          30      3.81%     84.64% |          21      2.66%     87.31% |          25      3.17%     90.48% |          24      3.05%     93.53% |          27      3.43%     96.95% |          24      3.05%    100.00%
system.ruby.L2Cache_Controller.MT_SB.L1_GETS::total          788                      
system.ruby.L2Cache_Controller.MT_SB.L1_GETX |          16      3.08%      3.08% |          11      2.12%      5.20% |          15      2.89%      8.09% |          16      3.08%     11.18% |          13      2.50%     13.68% |          15      2.89%     16.57% |          10      1.93%     18.50% |          16      3.08%     21.58% |          12      2.31%     23.89% |          16      3.08%     26.97% |          10      1.93%     28.90% |          20      3.85%     32.76% |          19      3.66%     36.42% |          14      2.70%     39.11% |          24      4.62%     43.74% |          13      2.50%     46.24% |          17      3.28%     49.52% |          18      3.47%     52.99% |          12      2.31%     55.30% |          11      2.12%     57.42% |          20      3.85%     61.27% |          25      4.82%     66.09% |          14      2.70%     68.79% |          13      2.50%     71.29% |          27      5.20%     76.49% |          18      3.47%     79.96% |          28      5.39%     85.36% |          21      4.05%     89.40% |          13      2.50%     91.91% |          17      3.28%     95.18% |          12      2.31%     97.50% |          13      2.50%    100.00%
system.ruby.L2Cache_Controller.MT_SB.L1_GETX::total          519                      
system.ruby.L2Cache_Controller.MT_SB.L1_UPGRADE |          13      3.65%      3.65% |           4      1.12%      4.78% |          14      3.93%      8.71% |          14      3.93%     12.64% |           9      2.53%     15.17% |          12      3.37%     18.54% |          14      3.93%     22.47% |           9      2.53%     25.00% |          12      3.37%     28.37% |          11      3.09%     31.46% |          17      4.78%     36.24% |          18      5.06%     41.29% |          15      4.21%     45.51% |          12      3.37%     48.88% |          13      3.65%     52.53% |          11      3.09%     55.62% |           5      1.40%     57.02% |          10      2.81%     59.83% |          11      3.09%     62.92% |          12      3.37%     66.29% |          16      4.49%     70.79% |           9      2.53%     73.31% |           5      1.40%     74.72% |           4      1.12%     75.84% |           9      2.53%     78.37% |           7      1.97%     80.34% |          16      4.49%     84.83% |          11      3.09%     87.92% |          14      3.93%     91.85% |           9      2.53%     94.38% |           8      2.25%     96.63% |          12      3.37%    100.00%
system.ruby.L2Cache_Controller.MT_SB.L1_UPGRADE::total          356                      
system.ruby.L2Cache_Controller.MT_SB.Unblock |        7470      3.25%      3.25% |        7290      3.17%      6.42% |        7267      3.16%      9.57% |        7128      3.10%     12.67% |        7398      3.22%     15.89% |        7200      3.13%     19.02% |        7245      3.15%     22.17% |        7179      3.12%     25.29% |        7217      3.14%     28.42% |        7103      3.09%     31.51% |        7151      3.11%     34.62% |        7009      3.05%     37.67% |        7165      3.11%     40.78% |        7083      3.08%     43.86% |        6939      3.02%     46.87% |        7210      3.13%     50.01% |        7288      3.17%     53.18% |        7108      3.09%     56.27% |        7265      3.16%     59.42% |        7131      3.10%     62.52% |        7294      3.17%     65.69% |        7116      3.09%     68.79% |        7137      3.10%     71.89% |        6979      3.03%     74.92% |        7143      3.10%     78.03% |        7151      3.11%     81.13% |        7102      3.09%     84.22% |        7175      3.12%     87.34% |        7384      3.21%     90.55% |        7226      3.14%     93.69% |        7267      3.16%     96.85% |        7249      3.15%    100.00%
system.ruby.L2Cache_Controller.MT_SB.Unblock::total       230069                      
system.ruby.SimicsNetworkPortInterface_Controller.MessageSend |      304229     18.12%     18.12% |      839462     50.00%     68.12% |       33995      2.02%     70.15% |       36985      2.20%     72.35% |       34473      2.05%     74.40% |       37886      2.26%     76.66% |       35247      2.10%     78.76% |       38977      2.32%     81.08% |       30170      1.80%     82.88% |       31957      1.90%     84.78% |       30347      1.81%     86.59% |       32087      1.91%     88.50% |       34233      2.04%     90.54% |       31419      1.87%     92.41% |       28687      1.71%     94.12% |       30711      1.83%     95.95% |       32748      1.95%     97.90% |       35311      2.10%    100.00% |           0      0.00%    100.00% |           0      0.00%    100.00% |           0      0.00%    100.00% |           0      0.00%    100.00% |           0      0.00%    100.00% |           0      0.00%    100.00% |           0      0.00%    100.00% |           0      0.00%    100.00% |           0      0.00%    100.00% |           0      0.00%    100.00% |           0      0.00%    100.00% |           0      0.00%    100.00% |           0      0.00%    100.00% |           0      0.00%    100.00%
system.ruby.SimicsNetworkPortInterface_Controller.MessageSend::total      1678924                      
system.ruby.SimicsNetworkPortInterface_Controller.MessageRecv |      304229     18.12%     18.12% |      839462     50.00%     68.12% |       33995      2.02%     70.15% |       36985      2.20%     72.35% |       34473      2.05%     74.40% |       37886      2.26%     76.66% |       35247      2.10%     78.76% |       38977      2.32%     81.08% |       30170      1.80%     82.88% |       31957      1.90%     84.78% |       30347      1.81%     86.59% |       32087      1.91%     88.50% |       34233      2.04%     90.54% |       31419      1.87%     92.41% |       28687      1.71%     94.12% |       30711      1.83%     95.95% |       32748      1.95%     97.90% |       35311      2.10%    100.00% |           0      0.00%    100.00% |           0      0.00%    100.00% |           0      0.00%    100.00% |           0      0.00%    100.00% |           0      0.00%    100.00% |           0      0.00%    100.00% |           0      0.00%    100.00% |           0      0.00%    100.00% |           0      0.00%    100.00% |           0      0.00%    100.00% |           0      0.00%    100.00% |           0      0.00%    100.00% |           0      0.00%    100.00% |           0      0.00%    100.00%
system.ruby.SimicsNetworkPortInterface_Controller.MessageRecv::total      1678924                      
system.ruby.SimicsNetworkPortInterface_Controller.A.MessageSend |      304229     18.12%     18.12% |      839462     50.00%     68.12% |       33995      2.02%     70.15% |       36985      2.20%     72.35% |       34473      2.05%     74.40% |       37886      2.26%     76.66% |       35247      2.10%     78.76% |       38977      2.32%     81.08% |       30170      1.80%     82.88% |       31957      1.90%     84.78% |       30347      1.81%     86.59% |       32087      1.91%     88.50% |       34233      2.04%     90.54% |       31419      1.87%     92.41% |       28687      1.71%     94.12% |       30711      1.83%     95.95% |       32748      1.95%     97.90% |       35311      2.10%    100.00% |           0      0.00%    100.00% |           0      0.00%    100.00% |           0      0.00%    100.00% |           0      0.00%    100.00% |           0      0.00%    100.00% |           0      0.00%    100.00% |           0      0.00%    100.00% |           0      0.00%    100.00% |           0      0.00%    100.00% |           0      0.00%    100.00% |           0      0.00%    100.00% |           0      0.00%    100.00% |           0      0.00%    100.00% |           0      0.00%    100.00%
system.ruby.SimicsNetworkPortInterface_Controller.A.MessageSend::total      1678924                      
system.ruby.SimicsNetworkPortInterface_Controller.A.MessageRecv |      304229     18.12%     18.12% |      839462     50.00%     68.12% |       33995      2.02%     70.15% |       36985      2.20%     72.35% |       34473      2.05%     74.40% |       37886      2.26%     76.66% |       35247      2.10%     78.76% |       38977      2.32%     81.08% |       30170      1.80%     82.88% |       31957      1.90%     84.78% |       30347      1.81%     86.59% |       32087      1.91%     88.50% |       34233      2.04%     90.54% |       31419      1.87%     92.41% |       28687      1.71%     94.12% |       30711      1.83%     95.95% |       32748      1.95%     97.90% |       35311      2.10%    100.00% |           0      0.00%    100.00% |           0      0.00%    100.00% |           0      0.00%    100.00% |           0      0.00%    100.00% |           0      0.00%    100.00% |           0      0.00%    100.00% |           0      0.00%    100.00% |           0      0.00%    100.00% |           0      0.00%    100.00% |           0      0.00%    100.00% |           0      0.00%    100.00% |           0      0.00%    100.00% |           0      0.00%    100.00% |           0      0.00%    100.00%
system.ruby.SimicsNetworkPortInterface_Controller.A.MessageRecv::total      1678924                      
system.switch_cpus.kern.inst.arm                    0                       # number of arm instructions executed
system.switch_cpus.kern.inst.quiesce                0                       # number of quiesce instructions executed

---------- End Simulation Statistics   ----------
