
---------- Begin Simulation Statistics ----------
sim_seconds                                  0.059767                       # Number of seconds simulated
sim_ticks                                 59767190000                       # Number of ticks simulated
final_tick                               5235935268500                       # Number of ticks from beginning of simulation (restored from checkpoints and never reset)
sim_freq                                 1000000000000                       # Frequency of simulated ticks
host_inst_rate                                  96618                       # Simulator instruction rate (inst/s)
host_op_rate                                   171881                       # Simulator op (including micro ops) rate (op/s)
host_tick_rate                              145247336                       # Simulator tick rate (ticks/s)
host_mem_usage                                4825824                       # Number of bytes of host memory used
host_seconds                                   411.49                       # Real time elapsed on the host
sim_insts                                    39756755                       # Number of instructions simulated
sim_ops                                      70726597                       # Number of ops (including micro ops) simulated
system.voltage_domain.voltage                       1                       # Voltage in Volts
system.clk_domain.clock                           500                       # Clock period in ticks
system.mem_ctrls0.bytes_read::ruby.dir_cntrl0     14034432                       # Number of bytes read from this memory
system.mem_ctrls0.bytes_read::total          14034432                       # Number of bytes read from this memory
system.mem_ctrls0.bytes_written::ruby.dir_cntrl0      4007488                       # Number of bytes written to this memory
system.mem_ctrls0.bytes_written::total        4007488                       # Number of bytes written to this memory
system.mem_ctrls0.num_reads::ruby.dir_cntrl0       219288                       # Number of read requests responded to by this memory
system.mem_ctrls0.num_reads::total             219288                       # Number of read requests responded to by this memory
system.mem_ctrls0.num_writes::ruby.dir_cntrl0        62617                       # Number of write requests responded to by this memory
system.mem_ctrls0.num_writes::total             62617                       # Number of write requests responded to by this memory
system.mem_ctrls0.bw_read::ruby.dir_cntrl0    234818334                       # Total read bandwidth from this memory (bytes/s)
system.mem_ctrls0.bw_read::total            234818334                       # Total read bandwidth from this memory (bytes/s)
system.mem_ctrls0.bw_write::ruby.dir_cntrl0     67051638                       # Write bandwidth from this memory (bytes/s)
system.mem_ctrls0.bw_write::total            67051638                       # Write bandwidth from this memory (bytes/s)
system.mem_ctrls0.bw_total::ruby.dir_cntrl0    301869972                       # Total bandwidth to/from this memory (bytes/s)
system.mem_ctrls0.bw_total::total           301869972                       # Total bandwidth to/from this memory (bytes/s)
system.mem_ctrls0.readReqs                     219288                       # Number of read requests accepted
system.mem_ctrls0.writeReqs                     62617                       # Number of write requests accepted
system.mem_ctrls0.readBursts                   219288                       # Number of DRAM read bursts, including those serviced by the write queue
system.mem_ctrls0.writeBursts                   62617                       # Number of DRAM write bursts, including those merged in the write queue
system.mem_ctrls0.bytesReadDRAM              14032576                       # Total number of bytes read from DRAM
system.mem_ctrls0.bytesReadWrQ                   1856                       # Total number of bytes read from write queue
system.mem_ctrls0.bytesWritten                4007424                       # Total number of bytes written to DRAM
system.mem_ctrls0.bytesReadSys               14034432                       # Total read bytes from the system interface side
system.mem_ctrls0.bytesWrittenSys             4007488                       # Total written bytes from the system interface side
system.mem_ctrls0.servicedByWrQ                    29                       # Number of DRAM read bursts serviced by the write queue
system.mem_ctrls0.mergedWrBursts                    0                       # Number of DRAM write bursts merged with an existing one
system.mem_ctrls0.neitherReadNorWriteReqs            0                       # Number of requests that are neither read nor write
system.mem_ctrls0.perBankRdBursts::0            13462                       # Per bank write bursts
system.mem_ctrls0.perBankRdBursts::1            13998                       # Per bank write bursts
system.mem_ctrls0.perBankRdBursts::2            13664                       # Per bank write bursts
system.mem_ctrls0.perBankRdBursts::3            14063                       # Per bank write bursts
system.mem_ctrls0.perBankRdBursts::4            13702                       # Per bank write bursts
system.mem_ctrls0.perBankRdBursts::5            14282                       # Per bank write bursts
system.mem_ctrls0.perBankRdBursts::6            13741                       # Per bank write bursts
system.mem_ctrls0.perBankRdBursts::7            13672                       # Per bank write bursts
system.mem_ctrls0.perBankRdBursts::8            13563                       # Per bank write bursts
system.mem_ctrls0.perBankRdBursts::9            13898                       # Per bank write bursts
system.mem_ctrls0.perBankRdBursts::10           13605                       # Per bank write bursts
system.mem_ctrls0.perBankRdBursts::11           13831                       # Per bank write bursts
system.mem_ctrls0.perBankRdBursts::12           13385                       # Per bank write bursts
system.mem_ctrls0.perBankRdBursts::13           13263                       # Per bank write bursts
system.mem_ctrls0.perBankRdBursts::14           13559                       # Per bank write bursts
system.mem_ctrls0.perBankRdBursts::15           13571                       # Per bank write bursts
system.mem_ctrls0.perBankWrBursts::0             3844                       # Per bank write bursts
system.mem_ctrls0.perBankWrBursts::1             3927                       # Per bank write bursts
system.mem_ctrls0.perBankWrBursts::2             3906                       # Per bank write bursts
system.mem_ctrls0.perBankWrBursts::3             4132                       # Per bank write bursts
system.mem_ctrls0.perBankWrBursts::4             3927                       # Per bank write bursts
system.mem_ctrls0.perBankWrBursts::5             4077                       # Per bank write bursts
system.mem_ctrls0.perBankWrBursts::6             3983                       # Per bank write bursts
system.mem_ctrls0.perBankWrBursts::7             3947                       # Per bank write bursts
system.mem_ctrls0.perBankWrBursts::8             3818                       # Per bank write bursts
system.mem_ctrls0.perBankWrBursts::9             4072                       # Per bank write bursts
system.mem_ctrls0.perBankWrBursts::10            3841                       # Per bank write bursts
system.mem_ctrls0.perBankWrBursts::11            3777                       # Per bank write bursts
system.mem_ctrls0.perBankWrBursts::12            3724                       # Per bank write bursts
system.mem_ctrls0.perBankWrBursts::13            3759                       # Per bank write bursts
system.mem_ctrls0.perBankWrBursts::14            4009                       # Per bank write bursts
system.mem_ctrls0.perBankWrBursts::15            3873                       # Per bank write bursts
system.mem_ctrls0.numRdRetry                      527                       # Number of times read queue was full causing retry
system.mem_ctrls0.numWrRetry                      268                       # Number of times write queue was full causing retry
system.mem_ctrls0.totGap                  59766698000                       # Total gap between requests
system.mem_ctrls0.readPktSize::0                    0                       # Read request sizes (log2)
system.mem_ctrls0.readPktSize::1                    0                       # Read request sizes (log2)
system.mem_ctrls0.readPktSize::2                    0                       # Read request sizes (log2)
system.mem_ctrls0.readPktSize::3                    0                       # Read request sizes (log2)
system.mem_ctrls0.readPktSize::4                    0                       # Read request sizes (log2)
system.mem_ctrls0.readPktSize::5                    0                       # Read request sizes (log2)
system.mem_ctrls0.readPktSize::6               219288                       # Read request sizes (log2)
system.mem_ctrls0.writePktSize::0                   0                       # Write request sizes (log2)
system.mem_ctrls0.writePktSize::1                   0                       # Write request sizes (log2)
system.mem_ctrls0.writePktSize::2                   0                       # Write request sizes (log2)
system.mem_ctrls0.writePktSize::3                   0                       # Write request sizes (log2)
system.mem_ctrls0.writePktSize::4                   0                       # Write request sizes (log2)
system.mem_ctrls0.writePktSize::5                   0                       # Write request sizes (log2)
system.mem_ctrls0.writePktSize::6               62617                       # Write request sizes (log2)
system.mem_ctrls0.rdQLenPdf::0                 160507                       # What read queue length does an incoming req see
system.mem_ctrls0.rdQLenPdf::1                  42634                       # What read queue length does an incoming req see
system.mem_ctrls0.rdQLenPdf::2                  11258                       # What read queue length does an incoming req see
system.mem_ctrls0.rdQLenPdf::3                   2668                       # What read queue length does an incoming req see
system.mem_ctrls0.rdQLenPdf::4                    604                       # What read queue length does an incoming req see
system.mem_ctrls0.rdQLenPdf::5                    189                       # What read queue length does an incoming req see
system.mem_ctrls0.rdQLenPdf::6                    118                       # What read queue length does an incoming req see
system.mem_ctrls0.rdQLenPdf::7                     75                       # What read queue length does an incoming req see
system.mem_ctrls0.rdQLenPdf::8                     63                       # What read queue length does an incoming req see
system.mem_ctrls0.rdQLenPdf::9                     57                       # What read queue length does an incoming req see
system.mem_ctrls0.rdQLenPdf::10                    43                       # What read queue length does an incoming req see
system.mem_ctrls0.rdQLenPdf::11                    42                       # What read queue length does an incoming req see
system.mem_ctrls0.rdQLenPdf::12                    33                       # What read queue length does an incoming req see
system.mem_ctrls0.rdQLenPdf::13                    31                       # What read queue length does an incoming req see
system.mem_ctrls0.rdQLenPdf::14                    21                       # What read queue length does an incoming req see
system.mem_ctrls0.rdQLenPdf::15                    26                       # What read queue length does an incoming req see
system.mem_ctrls0.rdQLenPdf::16                    18                       # What read queue length does an incoming req see
system.mem_ctrls0.rdQLenPdf::17                    19                       # What read queue length does an incoming req see
system.mem_ctrls0.rdQLenPdf::18                    18                       # What read queue length does an incoming req see
system.mem_ctrls0.rdQLenPdf::19                    21                       # What read queue length does an incoming req see
system.mem_ctrls0.rdQLenPdf::20                    20                       # What read queue length does an incoming req see
system.mem_ctrls0.rdQLenPdf::21                    18                       # What read queue length does an incoming req see
system.mem_ctrls0.rdQLenPdf::22                    17                       # What read queue length does an incoming req see
system.mem_ctrls0.rdQLenPdf::23                    22                       # What read queue length does an incoming req see
system.mem_ctrls0.rdQLenPdf::24                    24                       # What read queue length does an incoming req see
system.mem_ctrls0.rdQLenPdf::25                    17                       # What read queue length does an incoming req see
system.mem_ctrls0.rdQLenPdf::26                    22                       # What read queue length does an incoming req see
system.mem_ctrls0.rdQLenPdf::27                    18                       # What read queue length does an incoming req see
system.mem_ctrls0.rdQLenPdf::28                    23                       # What read queue length does an incoming req see
system.mem_ctrls0.rdQLenPdf::29                    22                       # What read queue length does an incoming req see
system.mem_ctrls0.rdQLenPdf::30                    32                       # What read queue length does an incoming req see
system.mem_ctrls0.rdQLenPdf::31                   579                       # What read queue length does an incoming req see
system.mem_ctrls0.wrQLenPdf::0                  12219                       # What write queue length does an incoming req see
system.mem_ctrls0.wrQLenPdf::1                  12419                       # What write queue length does an incoming req see
system.mem_ctrls0.wrQLenPdf::2                  12410                       # What write queue length does an incoming req see
system.mem_ctrls0.wrQLenPdf::3                  12371                       # What write queue length does an incoming req see
system.mem_ctrls0.wrQLenPdf::4                  12371                       # What write queue length does an incoming req see
system.mem_ctrls0.wrQLenPdf::5                    228                       # What write queue length does an incoming req see
system.mem_ctrls0.wrQLenPdf::6                    162                       # What write queue length does an incoming req see
system.mem_ctrls0.wrQLenPdf::7                    437                       # What write queue length does an incoming req see
system.mem_ctrls0.bytesPerActivate::samples        85544                       # Bytes accessed per row activation
system.mem_ctrls0.bytesPerActivate::mean   210.875152                       # Bytes accessed per row activation
system.mem_ctrls0.bytesPerActivate::gmean   135.802908                       # Bytes accessed per row activation
system.mem_ctrls0.bytesPerActivate::stdev   239.486903                       # Bytes accessed per row activation
system.mem_ctrls0.bytesPerActivate::0-127        41607     48.64%     48.64% # Bytes accessed per row activation
system.mem_ctrls0.bytesPerActivate::128-255        17755     20.76%     69.39% # Bytes accessed per row activation
system.mem_ctrls0.bytesPerActivate::256-383        14850     17.36%     86.75% # Bytes accessed per row activation
system.mem_ctrls0.bytesPerActivate::384-511         2622      3.07%     89.82% # Bytes accessed per row activation
system.mem_ctrls0.bytesPerActivate::512-639         1828      2.14%     91.96% # Bytes accessed per row activation
system.mem_ctrls0.bytesPerActivate::640-767         1261      1.47%     93.43% # Bytes accessed per row activation
system.mem_ctrls0.bytesPerActivate::768-895         1113      1.30%     94.73% # Bytes accessed per row activation
system.mem_ctrls0.bytesPerActivate::896-1023          902      1.05%     95.78% # Bytes accessed per row activation
system.mem_ctrls0.bytesPerActivate::1024-1151         3606      4.22%    100.00% # Bytes accessed per row activation
system.mem_ctrls0.bytesPerActivate::total        85544                       # Bytes accessed per row activation
system.mem_ctrls0.rdPerTurnAround::samples        12253                       # Reads before turning the bus around for writes
system.mem_ctrls0.rdPerTurnAround::mean     17.738268                       # Reads before turning the bus around for writes
system.mem_ctrls0.rdPerTurnAround::stdev    76.831287                       # Reads before turning the bus around for writes
system.mem_ctrls0.rdPerTurnAround::0-127        11902     97.14%     97.14% # Reads before turning the bus around for writes
system.mem_ctrls0.rdPerTurnAround::128-255          176      1.44%     98.57% # Reads before turning the bus around for writes
system.mem_ctrls0.rdPerTurnAround::256-383           73      0.60%     99.17% # Reads before turning the bus around for writes
system.mem_ctrls0.rdPerTurnAround::384-511           50      0.41%     99.58% # Reads before turning the bus around for writes
system.mem_ctrls0.rdPerTurnAround::512-639           22      0.18%     99.76% # Reads before turning the bus around for writes
system.mem_ctrls0.rdPerTurnAround::640-767           14      0.11%     99.87% # Reads before turning the bus around for writes
system.mem_ctrls0.rdPerTurnAround::768-895            5      0.04%     99.91% # Reads before turning the bus around for writes
system.mem_ctrls0.rdPerTurnAround::896-1023            4      0.03%     99.94% # Reads before turning the bus around for writes
system.mem_ctrls0.rdPerTurnAround::1024-1151            1      0.01%     99.95% # Reads before turning the bus around for writes
system.mem_ctrls0.rdPerTurnAround::1152-1279            2      0.02%     99.97% # Reads before turning the bus around for writes
system.mem_ctrls0.rdPerTurnAround::1408-1535            1      0.01%     99.98% # Reads before turning the bus around for writes
system.mem_ctrls0.rdPerTurnAround::1664-1791            1      0.01%     99.98% # Reads before turning the bus around for writes
system.mem_ctrls0.rdPerTurnAround::1792-1919            1      0.01%     99.99% # Reads before turning the bus around for writes
system.mem_ctrls0.rdPerTurnAround::3968-4095            1      0.01%    100.00% # Reads before turning the bus around for writes
system.mem_ctrls0.rdPerTurnAround::total        12253                       # Reads before turning the bus around for writes
system.mem_ctrls0.wrPerTurnAround::samples        12253                       # Writes before turning the bus around for reads
system.mem_ctrls0.wrPerTurnAround::mean      5.110259                       # Writes before turning the bus around for reads
system.mem_ctrls0.wrPerTurnAround::gmean     5.076890                       # Writes before turning the bus around for reads
system.mem_ctrls0.wrPerTurnAround::stdev     0.826434                       # Writes before turning the bus around for reads
system.mem_ctrls0.wrPerTurnAround::4-7          12136     99.05%     99.05% # Writes before turning the bus around for reads
system.mem_ctrls0.wrPerTurnAround::8-11            50      0.41%     99.45% # Writes before turning the bus around for reads
system.mem_ctrls0.wrPerTurnAround::12-15           19      0.16%     99.61% # Writes before turning the bus around for reads
system.mem_ctrls0.wrPerTurnAround::16-19           48      0.39%    100.00% # Writes before turning the bus around for reads
system.mem_ctrls0.wrPerTurnAround::total        12253                       # Writes before turning the bus around for reads
system.mem_ctrls0.totQLat                  2971237095                       # Total ticks spent queuing
system.mem_ctrls0.totMemAccLat             7082343345                       # Total ticks spent from burst creation until serviced by the DRAM
system.mem_ctrls0.totBusLat                1096295000                       # Total ticks spent in databus transfers
system.mem_ctrls0.avgQLat                    13551.27                       # Average queueing delay per DRAM burst
system.mem_ctrls0.avgBusLat                   5000.00                       # Average bus latency per DRAM burst
system.mem_ctrls0.avgMemAccLat               32301.27                       # Average memory access latency per DRAM burst
system.mem_ctrls0.avgRdBW                      234.79                       # Average DRAM read bandwidth in MiByte/s
system.mem_ctrls0.avgWrBW                       67.05                       # Average achieved write bandwidth in MiByte/s
system.mem_ctrls0.avgRdBWSys                   234.82                       # Average system read bandwidth in MiByte/s
system.mem_ctrls0.avgWrBWSys                    67.05                       # Average system write bandwidth in MiByte/s
system.mem_ctrls0.peakBW                     12800.00                       # Theoretical peak bandwidth in MiByte/s
system.mem_ctrls0.busUtil                        2.36                       # Data bus utilization in percentage
system.mem_ctrls0.busUtilRead                    1.83                       # Data bus utilization in percentage for reads
system.mem_ctrls0.busUtilWrite                   0.52                       # Data bus utilization in percentage for writes
system.mem_ctrls0.avgRdQLen                      1.12                       # Average read queue length when enqueuing
system.mem_ctrls0.avgWrQLen                      2.86                       # Average write queue length when enqueuing
system.mem_ctrls0.readRowHits                  157856                       # Number of row buffer hits during reads
system.mem_ctrls0.writeRowHits                  38467                       # Number of row buffer hits during writes
system.mem_ctrls0.readRowHitRate                72.00                       # Row buffer hit rate for reads
system.mem_ctrls0.writeRowHitRate               61.43                       # Row buffer hit rate for writes
system.mem_ctrls0.avgGap                    212010.07                       # Average gap between requests
system.mem_ctrls0.pageHitRate                   69.65                       # Row buffer hit rate, read and write combined
system.mem_ctrls0.memoryStateTime::IDLE   10794505250                       # Time in different power states
system.mem_ctrls0.memoryStateTime::REF     1995500000                       # Time in different power states
system.mem_ctrls0.memoryStateTime::PRE_PDN            0                       # Time in different power states
system.mem_ctrls0.memoryStateTime::ACT    46969875750                       # Time in different power states
system.mem_ctrls0.memoryStateTime::ACT_PDN            0                       # Time in different power states
system.mem_ctrls0.actEnergy::0              327227040                       # Energy for activate commands per rank (pJ)
system.mem_ctrls0.actEnergy::1              319455360                       # Energy for activate commands per rank (pJ)
system.mem_ctrls0.preEnergy::0              178546500                       # Energy for precharge commands per rank (pJ)
system.mem_ctrls0.preEnergy::1              174306000                       # Energy for precharge commands per rank (pJ)
system.mem_ctrls0.readEnergy::0             862453800                       # Energy for read commands per rank (pJ)
system.mem_ctrls0.readEnergy::1             847618200                       # Energy for read commands per rank (pJ)
system.mem_ctrls0.writeEnergy::0            205694640                       # Energy for write commands per rank (pJ)
system.mem_ctrls0.writeEnergy::1            200057040                       # Energy for write commands per rank (pJ)
system.mem_ctrls0.refreshEnergy::0         3903198000                       # Energy for refresh commands per rank (pJ)
system.mem_ctrls0.refreshEnergy::1         3903198000                       # Energy for refresh commands per rank (pJ)
system.mem_ctrls0.actBackEnergy::0        25624625310                       # Energy for active background per rank (pJ)
system.mem_ctrls0.actBackEnergy::1        24953197230                       # Energy for active background per rank (pJ)
system.mem_ctrls0.preBackEnergy::0        13378095750                       # Energy for precharge background per rank (pJ)
system.mem_ctrls0.preBackEnergy::1        13967067750                       # Energy for precharge background per rank (pJ)
system.mem_ctrls0.totalEnergy::0          44479841040                       # Total energy per rank (pJ)
system.mem_ctrls0.totalEnergy::1          44364899580                       # Total energy per rank (pJ)
system.mem_ctrls0.averagePower::0          744.311294                       # Core power per rank (mW)
system.mem_ctrls0.averagePower::1          742.387901                       # Core power per rank (mW)
system.mem_ctrls1.bytes_read::ruby.dir_cntrl1     13851328                       # Number of bytes read from this memory
system.mem_ctrls1.bytes_read::total          13851328                       # Number of bytes read from this memory
system.mem_ctrls1.bytes_written::ruby.dir_cntrl1      3840704                       # Number of bytes written to this memory
system.mem_ctrls1.bytes_written::total        3840704                       # Number of bytes written to this memory
system.mem_ctrls1.num_reads::ruby.dir_cntrl1       216427                       # Number of read requests responded to by this memory
system.mem_ctrls1.num_reads::total             216427                       # Number of read requests responded to by this memory
system.mem_ctrls1.num_writes::ruby.dir_cntrl1        60011                       # Number of write requests responded to by this memory
system.mem_ctrls1.num_writes::total             60011                       # Number of write requests responded to by this memory
system.mem_ctrls1.bw_read::ruby.dir_cntrl1    231754714                       # Total read bandwidth from this memory (bytes/s)
system.mem_ctrls1.bw_read::total            231754714                       # Total read bandwidth from this memory (bytes/s)
system.mem_ctrls1.bw_write::ruby.dir_cntrl1     64261077                       # Write bandwidth from this memory (bytes/s)
system.mem_ctrls1.bw_write::total            64261077                       # Write bandwidth from this memory (bytes/s)
system.mem_ctrls1.bw_total::ruby.dir_cntrl1    296015791                       # Total bandwidth to/from this memory (bytes/s)
system.mem_ctrls1.bw_total::total           296015791                       # Total bandwidth to/from this memory (bytes/s)
system.mem_ctrls1.readReqs                     216427                       # Number of read requests accepted
system.mem_ctrls1.writeReqs                     60011                       # Number of write requests accepted
system.mem_ctrls1.readBursts                   216427                       # Number of DRAM read bursts, including those serviced by the write queue
system.mem_ctrls1.writeBursts                   60011                       # Number of DRAM write bursts, including those merged in the write queue
system.mem_ctrls1.bytesReadDRAM              13849792                       # Total number of bytes read from DRAM
system.mem_ctrls1.bytesReadWrQ                   1536                       # Total number of bytes read from write queue
system.mem_ctrls1.bytesWritten                3840512                       # Total number of bytes written to DRAM
system.mem_ctrls1.bytesReadSys               13851328                       # Total read bytes from the system interface side
system.mem_ctrls1.bytesWrittenSys             3840704                       # Total written bytes from the system interface side
system.mem_ctrls1.servicedByWrQ                    24                       # Number of DRAM read bursts serviced by the write queue
system.mem_ctrls1.mergedWrBursts                    0                       # Number of DRAM write bursts merged with an existing one
system.mem_ctrls1.neitherReadNorWriteReqs            0                       # Number of requests that are neither read nor write
system.mem_ctrls1.perBankRdBursts::0            13290                       # Per bank write bursts
system.mem_ctrls1.perBankRdBursts::1            13819                       # Per bank write bursts
system.mem_ctrls1.perBankRdBursts::2            13485                       # Per bank write bursts
system.mem_ctrls1.perBankRdBursts::3            13893                       # Per bank write bursts
system.mem_ctrls1.perBankRdBursts::4            13534                       # Per bank write bursts
system.mem_ctrls1.perBankRdBursts::5            14118                       # Per bank write bursts
system.mem_ctrls1.perBankRdBursts::6            13534                       # Per bank write bursts
system.mem_ctrls1.perBankRdBursts::7            13511                       # Per bank write bursts
system.mem_ctrls1.perBankRdBursts::8            13403                       # Per bank write bursts
system.mem_ctrls1.perBankRdBursts::9            13712                       # Per bank write bursts
system.mem_ctrls1.perBankRdBursts::10           13419                       # Per bank write bursts
system.mem_ctrls1.perBankRdBursts::11           13655                       # Per bank write bursts
system.mem_ctrls1.perBankRdBursts::12           13210                       # Per bank write bursts
system.mem_ctrls1.perBankRdBursts::13           13105                       # Per bank write bursts
system.mem_ctrls1.perBankRdBursts::14           13294                       # Per bank write bursts
system.mem_ctrls1.perBankRdBursts::15           13421                       # Per bank write bursts
system.mem_ctrls1.perBankWrBursts::0             3686                       # Per bank write bursts
system.mem_ctrls1.perBankWrBursts::1             3780                       # Per bank write bursts
system.mem_ctrls1.perBankWrBursts::2             3765                       # Per bank write bursts
system.mem_ctrls1.perBankWrBursts::3             3979                       # Per bank write bursts
system.mem_ctrls1.perBankWrBursts::4             3771                       # Per bank write bursts
system.mem_ctrls1.perBankWrBursts::5             3924                       # Per bank write bursts
system.mem_ctrls1.perBankWrBursts::6             3803                       # Per bank write bursts
system.mem_ctrls1.perBankWrBursts::7             3779                       # Per bank write bursts
system.mem_ctrls1.perBankWrBursts::8             3663                       # Per bank write bursts
system.mem_ctrls1.perBankWrBursts::9             3898                       # Per bank write bursts
system.mem_ctrls1.perBankWrBursts::10            3678                       # Per bank write bursts
system.mem_ctrls1.perBankWrBursts::11            3611                       # Per bank write bursts
system.mem_ctrls1.perBankWrBursts::12            3566                       # Per bank write bursts
system.mem_ctrls1.perBankWrBursts::13            3595                       # Per bank write bursts
system.mem_ctrls1.perBankWrBursts::14            3794                       # Per bank write bursts
system.mem_ctrls1.perBankWrBursts::15            3716                       # Per bank write bursts
system.mem_ctrls1.numRdRetry                      147                       # Number of times read queue was full causing retry
system.mem_ctrls1.numWrRetry                      222                       # Number of times write queue was full causing retry
system.mem_ctrls1.totGap                  59766439500                       # Total gap between requests
system.mem_ctrls1.readPktSize::0                    0                       # Read request sizes (log2)
system.mem_ctrls1.readPktSize::1                    0                       # Read request sizes (log2)
system.mem_ctrls1.readPktSize::2                    0                       # Read request sizes (log2)
system.mem_ctrls1.readPktSize::3                    0                       # Read request sizes (log2)
system.mem_ctrls1.readPktSize::4                    0                       # Read request sizes (log2)
system.mem_ctrls1.readPktSize::5                    0                       # Read request sizes (log2)
system.mem_ctrls1.readPktSize::6               216427                       # Read request sizes (log2)
system.mem_ctrls1.writePktSize::0                   0                       # Write request sizes (log2)
system.mem_ctrls1.writePktSize::1                   0                       # Write request sizes (log2)
system.mem_ctrls1.writePktSize::2                   0                       # Write request sizes (log2)
system.mem_ctrls1.writePktSize::3                   0                       # Write request sizes (log2)
system.mem_ctrls1.writePktSize::4                   0                       # Write request sizes (log2)
system.mem_ctrls1.writePktSize::5                   0                       # Write request sizes (log2)
system.mem_ctrls1.writePktSize::6               60011                       # Write request sizes (log2)
system.mem_ctrls1.rdQLenPdf::0                 158336                       # What read queue length does an incoming req see
system.mem_ctrls1.rdQLenPdf::1                  42922                       # What read queue length does an incoming req see
system.mem_ctrls1.rdQLenPdf::2                  10838                       # What read queue length does an incoming req see
system.mem_ctrls1.rdQLenPdf::3                   2357                       # What read queue length does an incoming req see
system.mem_ctrls1.rdQLenPdf::4                    553                       # What read queue length does an incoming req see
system.mem_ctrls1.rdQLenPdf::5                    204                       # What read queue length does an incoming req see
system.mem_ctrls1.rdQLenPdf::6                    113                       # What read queue length does an incoming req see
system.mem_ctrls1.rdQLenPdf::7                    100                       # What read queue length does an incoming req see
system.mem_ctrls1.rdQLenPdf::8                     90                       # What read queue length does an incoming req see
system.mem_ctrls1.rdQLenPdf::9                     76                       # What read queue length does an incoming req see
system.mem_ctrls1.rdQLenPdf::10                    80                       # What read queue length does an incoming req see
system.mem_ctrls1.rdQLenPdf::11                    65                       # What read queue length does an incoming req see
system.mem_ctrls1.rdQLenPdf::12                    58                       # What read queue length does an incoming req see
system.mem_ctrls1.rdQLenPdf::13                    46                       # What read queue length does an incoming req see
system.mem_ctrls1.rdQLenPdf::14                    37                       # What read queue length does an incoming req see
system.mem_ctrls1.rdQLenPdf::15                    34                       # What read queue length does an incoming req see
system.mem_ctrls1.rdQLenPdf::16                    37                       # What read queue length does an incoming req see
system.mem_ctrls1.rdQLenPdf::17                    29                       # What read queue length does an incoming req see
system.mem_ctrls1.rdQLenPdf::18                    20                       # What read queue length does an incoming req see
system.mem_ctrls1.rdQLenPdf::19                    27                       # What read queue length does an incoming req see
system.mem_ctrls1.rdQLenPdf::20                    20                       # What read queue length does an incoming req see
system.mem_ctrls1.rdQLenPdf::21                    23                       # What read queue length does an incoming req see
system.mem_ctrls1.rdQLenPdf::22                    20                       # What read queue length does an incoming req see
system.mem_ctrls1.rdQLenPdf::23                    17                       # What read queue length does an incoming req see
system.mem_ctrls1.rdQLenPdf::24                    14                       # What read queue length does an incoming req see
system.mem_ctrls1.rdQLenPdf::25                    16                       # What read queue length does an incoming req see
system.mem_ctrls1.rdQLenPdf::26                    16                       # What read queue length does an incoming req see
system.mem_ctrls1.rdQLenPdf::27                    15                       # What read queue length does an incoming req see
system.mem_ctrls1.rdQLenPdf::28                    20                       # What read queue length does an incoming req see
system.mem_ctrls1.rdQLenPdf::29                    25                       # What read queue length does an incoming req see
system.mem_ctrls1.rdQLenPdf::30                    21                       # What read queue length does an incoming req see
system.mem_ctrls1.rdQLenPdf::31                   174                       # What read queue length does an incoming req see
system.mem_ctrls1.wrQLenPdf::0                  11728                       # What write queue length does an incoming req see
system.mem_ctrls1.wrQLenPdf::1                  11886                       # What write queue length does an incoming req see
system.mem_ctrls1.wrQLenPdf::2                  11896                       # What write queue length does an incoming req see
system.mem_ctrls1.wrQLenPdf::3                  11885                       # What write queue length does an incoming req see
system.mem_ctrls1.wrQLenPdf::4                  11866                       # What write queue length does an incoming req see
system.mem_ctrls1.wrQLenPdf::5                    240                       # What write queue length does an incoming req see
system.mem_ctrls1.wrQLenPdf::6                    163                       # What write queue length does an incoming req see
system.mem_ctrls1.wrQLenPdf::7                    347                       # What write queue length does an incoming req see
system.mem_ctrls1.bytesPerActivate::samples        81149                       # Bytes accessed per row activation
system.mem_ctrls1.bytesPerActivate::mean   217.982822                       # Bytes accessed per row activation
system.mem_ctrls1.bytesPerActivate::gmean   139.636629                       # Bytes accessed per row activation
system.mem_ctrls1.bytesPerActivate::stdev   245.309174                       # Bytes accessed per row activation
system.mem_ctrls1.bytesPerActivate::0-127        38217     47.09%     47.09% # Bytes accessed per row activation
system.mem_ctrls1.bytesPerActivate::128-255        17031     20.99%     68.08% # Bytes accessed per row activation
system.mem_ctrls1.bytesPerActivate::256-383        14438     17.79%     85.87% # Bytes accessed per row activation
system.mem_ctrls1.bytesPerActivate::384-511         2578      3.18%     89.05% # Bytes accessed per row activation
system.mem_ctrls1.bytesPerActivate::512-639         1916      2.36%     91.41% # Bytes accessed per row activation
system.mem_ctrls1.bytesPerActivate::640-767         1288      1.59%     93.00% # Bytes accessed per row activation
system.mem_ctrls1.bytesPerActivate::768-895         1084      1.34%     94.34% # Bytes accessed per row activation
system.mem_ctrls1.bytesPerActivate::896-1023          947      1.17%     95.50% # Bytes accessed per row activation
system.mem_ctrls1.bytesPerActivate::1024-1151         3650      4.50%    100.00% # Bytes accessed per row activation
system.mem_ctrls1.bytesPerActivate::total        81149                       # Bytes accessed per row activation
system.mem_ctrls1.rdPerTurnAround::samples        11753                       # Reads before turning the bus around for writes
system.mem_ctrls1.rdPerTurnAround::mean     18.248873                       # Reads before turning the bus around for writes
system.mem_ctrls1.rdPerTurnAround::stdev    77.060878                       # Reads before turning the bus around for writes
system.mem_ctrls1.rdPerTurnAround::0-127        11415     97.12%     97.12% # Reads before turning the bus around for writes
system.mem_ctrls1.rdPerTurnAround::128-255          154      1.31%     98.43% # Reads before turning the bus around for writes
system.mem_ctrls1.rdPerTurnAround::256-383           84      0.71%     99.15% # Reads before turning the bus around for writes
system.mem_ctrls1.rdPerTurnAround::384-511           44      0.37%     99.52% # Reads before turning the bus around for writes
system.mem_ctrls1.rdPerTurnAround::512-639           25      0.21%     99.74% # Reads before turning the bus around for writes
system.mem_ctrls1.rdPerTurnAround::640-767           15      0.13%     99.86% # Reads before turning the bus around for writes
system.mem_ctrls1.rdPerTurnAround::768-895            6      0.05%     99.91% # Reads before turning the bus around for writes
system.mem_ctrls1.rdPerTurnAround::896-1023            2      0.02%     99.93% # Reads before turning the bus around for writes
system.mem_ctrls1.rdPerTurnAround::1024-1151            1      0.01%     99.94% # Reads before turning the bus around for writes
system.mem_ctrls1.rdPerTurnAround::1152-1279            1      0.01%     99.95% # Reads before turning the bus around for writes
system.mem_ctrls1.rdPerTurnAround::1536-1663            1      0.01%     99.96% # Reads before turning the bus around for writes
system.mem_ctrls1.rdPerTurnAround::1664-1791            1      0.01%     99.97% # Reads before turning the bus around for writes
system.mem_ctrls1.rdPerTurnAround::1792-1919            2      0.02%     99.98% # Reads before turning the bus around for writes
system.mem_ctrls1.rdPerTurnAround::2048-2175            1      0.01%     99.99% # Reads before turning the bus around for writes
system.mem_ctrls1.rdPerTurnAround::2816-2943            1      0.01%    100.00% # Reads before turning the bus around for writes
system.mem_ctrls1.rdPerTurnAround::total        11753                       # Reads before turning the bus around for writes
system.mem_ctrls1.wrPerTurnAround::samples        11753                       # Writes before turning the bus around for reads
system.mem_ctrls1.wrPerTurnAround::mean      5.105760                       # Writes before turning the bus around for reads
system.mem_ctrls1.wrPerTurnAround::gmean     5.076380                       # Writes before turning the bus around for reads
system.mem_ctrls1.wrPerTurnAround::stdev     0.758295                       # Writes before turning the bus around for reads
system.mem_ctrls1.wrPerTurnAround::4-7          11637     99.01%     99.01% # Writes before turning the bus around for reads
system.mem_ctrls1.wrPerTurnAround::8-11            63      0.54%     99.55% # Writes before turning the bus around for reads
system.mem_ctrls1.wrPerTurnAround::12-15           21      0.18%     99.73% # Writes before turning the bus around for reads
system.mem_ctrls1.wrPerTurnAround::16-19           32      0.27%    100.00% # Writes before turning the bus around for reads
system.mem_ctrls1.wrPerTurnAround::total        11753                       # Writes before turning the bus around for reads
system.mem_ctrls1.totQLat                  2742958314                       # Total ticks spent queuing
system.mem_ctrls1.totMemAccLat             6800514564                       # Total ticks spent from burst creation until serviced by the DRAM
system.mem_ctrls1.totBusLat                1082015000                       # Total ticks spent in databus transfers
system.mem_ctrls1.avgQLat                    12675.23                       # Average queueing delay per DRAM burst
system.mem_ctrls1.avgBusLat                   5000.00                       # Average bus latency per DRAM burst
system.mem_ctrls1.avgMemAccLat               31425.23                       # Average memory access latency per DRAM burst
system.mem_ctrls1.avgRdBW                      231.73                       # Average DRAM read bandwidth in MiByte/s
system.mem_ctrls1.avgWrBW                       64.26                       # Average achieved write bandwidth in MiByte/s
system.mem_ctrls1.avgRdBWSys                   231.75                       # Average system read bandwidth in MiByte/s
system.mem_ctrls1.avgWrBWSys                    64.26                       # Average system write bandwidth in MiByte/s
system.mem_ctrls1.peakBW                     12800.00                       # Theoretical peak bandwidth in MiByte/s
system.mem_ctrls1.busUtil                        2.31                       # Data bus utilization in percentage
system.mem_ctrls1.busUtilRead                    1.81                       # Data bus utilization in percentage for reads
system.mem_ctrls1.busUtilWrite                   0.50                       # Data bus utilization in percentage for writes
system.mem_ctrls1.avgRdQLen                      1.10                       # Average read queue length when enqueuing
system.mem_ctrls1.avgWrQLen                      2.90                       # Average write queue length when enqueuing
system.mem_ctrls1.readRowHits                  156474                       # Number of row buffer hits during reads
system.mem_ctrls1.writeRowHits                  38780                       # Number of row buffer hits during writes
system.mem_ctrls1.readRowHitRate                72.31                       # Row buffer hit rate for reads
system.mem_ctrls1.writeRowHitRate               64.62                       # Row buffer hit rate for writes
system.mem_ctrls1.avgGap                    216201.97                       # Average gap between requests
system.mem_ctrls1.pageHitRate                   70.64                       # Row buffer hit rate, read and write combined
system.mem_ctrls1.memoryStateTime::IDLE   11228791750                       # Time in different power states
system.mem_ctrls1.memoryStateTime::REF     1995500000                       # Time in different power states
system.mem_ctrls1.memoryStateTime::PRE_PDN            0                       # Time in different power states
system.mem_ctrls1.memoryStateTime::ACT    46536098250                       # Time in different power states
system.mem_ctrls1.memoryStateTime::ACT_PDN            0                       # Time in different power states
system.mem_ctrls1.actEnergy::0              310920120                       # Energy for activate commands per rank (pJ)
system.mem_ctrls1.actEnergy::1              302558760                       # Energy for activate commands per rank (pJ)
system.mem_ctrls1.preEnergy::0              169648875                       # Energy for precharge commands per rank (pJ)
system.mem_ctrls1.preEnergy::1              165086625                       # Energy for precharge commands per rank (pJ)
system.mem_ctrls1.readEnergy::0             851518200                       # Energy for read commands per rank (pJ)
system.mem_ctrls1.readEnergy::1             836269200                       # Energy for read commands per rank (pJ)
system.mem_ctrls1.writeEnergy::0            197555760                       # Energy for write commands per rank (pJ)
system.mem_ctrls1.writeEnergy::1            191296080                       # Energy for write commands per rank (pJ)
system.mem_ctrls1.refreshEnergy::0         3903198000                       # Energy for refresh commands per rank (pJ)
system.mem_ctrls1.refreshEnergy::1         3903198000                       # Energy for refresh commands per rank (pJ)
system.mem_ctrls1.actBackEnergy::0        25316098560                       # Energy for active background per rank (pJ)
system.mem_ctrls1.actBackEnergy::1        24379206660                       # Energy for active background per rank (pJ)
system.mem_ctrls1.preBackEnergy::0        13648733250                       # Energy for precharge background per rank (pJ)
system.mem_ctrls1.preBackEnergy::1        14470568250                       # Energy for precharge background per rank (pJ)
system.mem_ctrls1.totalEnergy::0          44397672765                       # Total energy per rank (pJ)
system.mem_ctrls1.totalEnergy::1          44248183575                       # Total energy per rank (pJ)
system.mem_ctrls1.averagePower::0          742.936317                       # Core power per rank (mW)
system.mem_ctrls1.averagePower::1          740.434813                       # Core power per rank (mW)
system.mem_ctrls2.bytes_read::ruby.dir_cntrl2     13851712                       # Number of bytes read from this memory
system.mem_ctrls2.bytes_read::total          13851712                       # Number of bytes read from this memory
system.mem_ctrls2.bytes_written::ruby.dir_cntrl2      3841920                       # Number of bytes written to this memory
system.mem_ctrls2.bytes_written::total        3841920                       # Number of bytes written to this memory
system.mem_ctrls2.num_reads::ruby.dir_cntrl2       216433                       # Number of read requests responded to by this memory
system.mem_ctrls2.num_reads::total             216433                       # Number of read requests responded to by this memory
system.mem_ctrls2.num_writes::ruby.dir_cntrl2        60030                       # Number of write requests responded to by this memory
system.mem_ctrls2.num_writes::total             60030                       # Number of write requests responded to by this memory
system.mem_ctrls2.bw_read::ruby.dir_cntrl2    231761139                       # Total read bandwidth from this memory (bytes/s)
system.mem_ctrls2.bw_read::total            231761139                       # Total read bandwidth from this memory (bytes/s)
system.mem_ctrls2.bw_write::ruby.dir_cntrl2     64281423                       # Write bandwidth from this memory (bytes/s)
system.mem_ctrls2.bw_write::total            64281423                       # Write bandwidth from this memory (bytes/s)
system.mem_ctrls2.bw_total::ruby.dir_cntrl2    296042561                       # Total bandwidth to/from this memory (bytes/s)
system.mem_ctrls2.bw_total::total           296042561                       # Total bandwidth to/from this memory (bytes/s)
system.mem_ctrls2.readReqs                     216433                       # Number of read requests accepted
system.mem_ctrls2.writeReqs                     60030                       # Number of write requests accepted
system.mem_ctrls2.readBursts                   216433                       # Number of DRAM read bursts, including those serviced by the write queue
system.mem_ctrls2.writeBursts                   60030                       # Number of DRAM write bursts, including those merged in the write queue
system.mem_ctrls2.bytesReadDRAM              13850944                       # Total number of bytes read from DRAM
system.mem_ctrls2.bytesReadWrQ                    768                       # Total number of bytes read from write queue
system.mem_ctrls2.bytesWritten                3841664                       # Total number of bytes written to DRAM
system.mem_ctrls2.bytesReadSys               13851712                       # Total read bytes from the system interface side
system.mem_ctrls2.bytesWrittenSys             3841920                       # Total written bytes from the system interface side
system.mem_ctrls2.servicedByWrQ                    12                       # Number of DRAM read bursts serviced by the write queue
system.mem_ctrls2.mergedWrBursts                    0                       # Number of DRAM write bursts merged with an existing one
system.mem_ctrls2.neitherReadNorWriteReqs            0                       # Number of requests that are neither read nor write
system.mem_ctrls2.perBankRdBursts::0            13291                       # Per bank write bursts
system.mem_ctrls2.perBankRdBursts::1            13833                       # Per bank write bursts
system.mem_ctrls2.perBankRdBursts::2            13509                       # Per bank write bursts
system.mem_ctrls2.perBankRdBursts::3            13918                       # Per bank write bursts
system.mem_ctrls2.perBankRdBursts::4            13545                       # Per bank write bursts
system.mem_ctrls2.perBankRdBursts::5            14107                       # Per bank write bursts
system.mem_ctrls2.perBankRdBursts::6            13493                       # Per bank write bursts
system.mem_ctrls2.perBankRdBursts::7            13499                       # Per bank write bursts
system.mem_ctrls2.perBankRdBursts::8            13396                       # Per bank write bursts
system.mem_ctrls2.perBankRdBursts::9            13711                       # Per bank write bursts
system.mem_ctrls2.perBankRdBursts::10           13425                       # Per bank write bursts
system.mem_ctrls2.perBankRdBursts::11           13701                       # Per bank write bursts
system.mem_ctrls2.perBankRdBursts::12           13205                       # Per bank write bursts
system.mem_ctrls2.perBankRdBursts::13           13068                       # Per bank write bursts
system.mem_ctrls2.perBankRdBursts::14           13299                       # Per bank write bursts
system.mem_ctrls2.perBankRdBursts::15           13421                       # Per bank write bursts
system.mem_ctrls2.perBankWrBursts::0             3679                       # Per bank write bursts
system.mem_ctrls2.perBankWrBursts::1             3777                       # Per bank write bursts
system.mem_ctrls2.perBankWrBursts::2             3762                       # Per bank write bursts
system.mem_ctrls2.perBankWrBursts::3             3992                       # Per bank write bursts
system.mem_ctrls2.perBankWrBursts::4             3770                       # Per bank write bursts
system.mem_ctrls2.perBankWrBursts::5             3914                       # Per bank write bursts
system.mem_ctrls2.perBankWrBursts::6             3812                       # Per bank write bursts
system.mem_ctrls2.perBankWrBursts::7             3786                       # Per bank write bursts
system.mem_ctrls2.perBankWrBursts::8             3665                       # Per bank write bursts
system.mem_ctrls2.perBankWrBursts::9             3906                       # Per bank write bursts
system.mem_ctrls2.perBankWrBursts::10            3673                       # Per bank write bursts
system.mem_ctrls2.perBankWrBursts::11            3608                       # Per bank write bursts
system.mem_ctrls2.perBankWrBursts::12            3575                       # Per bank write bursts
system.mem_ctrls2.perBankWrBursts::13            3589                       # Per bank write bursts
system.mem_ctrls2.perBankWrBursts::14            3799                       # Per bank write bursts
system.mem_ctrls2.perBankWrBursts::15            3719                       # Per bank write bursts
system.mem_ctrls2.numRdRetry                      363                       # Number of times read queue was full causing retry
system.mem_ctrls2.numWrRetry                      188                       # Number of times write queue was full causing retry
system.mem_ctrls2.totGap                  59766472000                       # Total gap between requests
system.mem_ctrls2.readPktSize::0                    0                       # Read request sizes (log2)
system.mem_ctrls2.readPktSize::1                    0                       # Read request sizes (log2)
system.mem_ctrls2.readPktSize::2                    0                       # Read request sizes (log2)
system.mem_ctrls2.readPktSize::3                    0                       # Read request sizes (log2)
system.mem_ctrls2.readPktSize::4                    0                       # Read request sizes (log2)
system.mem_ctrls2.readPktSize::5                    0                       # Read request sizes (log2)
system.mem_ctrls2.readPktSize::6               216433                       # Read request sizes (log2)
system.mem_ctrls2.writePktSize::0                   0                       # Write request sizes (log2)
system.mem_ctrls2.writePktSize::1                   0                       # Write request sizes (log2)
system.mem_ctrls2.writePktSize::2                   0                       # Write request sizes (log2)
system.mem_ctrls2.writePktSize::3                   0                       # Write request sizes (log2)
system.mem_ctrls2.writePktSize::4                   0                       # Write request sizes (log2)
system.mem_ctrls2.writePktSize::5                   0                       # Write request sizes (log2)
system.mem_ctrls2.writePktSize::6               60030                       # Write request sizes (log2)
system.mem_ctrls2.rdQLenPdf::0                 158734                       # What read queue length does an incoming req see
system.mem_ctrls2.rdQLenPdf::1                  42436                       # What read queue length does an incoming req see
system.mem_ctrls2.rdQLenPdf::2                  10886                       # What read queue length does an incoming req see
system.mem_ctrls2.rdQLenPdf::3                   2429                       # What read queue length does an incoming req see
system.mem_ctrls2.rdQLenPdf::4                    520                       # What read queue length does an incoming req see
system.mem_ctrls2.rdQLenPdf::5                    163                       # What read queue length does an incoming req see
system.mem_ctrls2.rdQLenPdf::6                    118                       # What read queue length does an incoming req see
system.mem_ctrls2.rdQLenPdf::7                    108                       # What read queue length does an incoming req see
system.mem_ctrls2.rdQLenPdf::8                     63                       # What read queue length does an incoming req see
system.mem_ctrls2.rdQLenPdf::9                     62                       # What read queue length does an incoming req see
system.mem_ctrls2.rdQLenPdf::10                    46                       # What read queue length does an incoming req see
system.mem_ctrls2.rdQLenPdf::11                    46                       # What read queue length does an incoming req see
system.mem_ctrls2.rdQLenPdf::12                    40                       # What read queue length does an incoming req see
system.mem_ctrls2.rdQLenPdf::13                    44                       # What read queue length does an incoming req see
system.mem_ctrls2.rdQLenPdf::14                    31                       # What read queue length does an incoming req see
system.mem_ctrls2.rdQLenPdf::15                    24                       # What read queue length does an incoming req see
system.mem_ctrls2.rdQLenPdf::16                    29                       # What read queue length does an incoming req see
system.mem_ctrls2.rdQLenPdf::17                    24                       # What read queue length does an incoming req see
system.mem_ctrls2.rdQLenPdf::18                    19                       # What read queue length does an incoming req see
system.mem_ctrls2.rdQLenPdf::19                    13                       # What read queue length does an incoming req see
system.mem_ctrls2.rdQLenPdf::20                    14                       # What read queue length does an incoming req see
system.mem_ctrls2.rdQLenPdf::21                     9                       # What read queue length does an incoming req see
system.mem_ctrls2.rdQLenPdf::22                    12                       # What read queue length does an incoming req see
system.mem_ctrls2.rdQLenPdf::23                     7                       # What read queue length does an incoming req see
system.mem_ctrls2.rdQLenPdf::24                    10                       # What read queue length does an incoming req see
system.mem_ctrls2.rdQLenPdf::25                    10                       # What read queue length does an incoming req see
system.mem_ctrls2.rdQLenPdf::26                    11                       # What read queue length does an incoming req see
system.mem_ctrls2.rdQLenPdf::27                    12                       # What read queue length does an incoming req see
system.mem_ctrls2.rdQLenPdf::28                    20                       # What read queue length does an incoming req see
system.mem_ctrls2.rdQLenPdf::29                    26                       # What read queue length does an incoming req see
system.mem_ctrls2.rdQLenPdf::30                    44                       # What read queue length does an incoming req see
system.mem_ctrls2.rdQLenPdf::31                   411                       # What read queue length does an incoming req see
system.mem_ctrls2.wrQLenPdf::0                  11743                       # What write queue length does an incoming req see
system.mem_ctrls2.wrQLenPdf::1                  11912                       # What write queue length does an incoming req see
system.mem_ctrls2.wrQLenPdf::2                  11917                       # What write queue length does an incoming req see
system.mem_ctrls2.wrQLenPdf::3                  11900                       # What write queue length does an incoming req see
system.mem_ctrls2.wrQLenPdf::4                  11856                       # What write queue length does an incoming req see
system.mem_ctrls2.wrQLenPdf::5                    218                       # What write queue length does an incoming req see
system.mem_ctrls2.wrQLenPdf::6                    146                       # What write queue length does an incoming req see
system.mem_ctrls2.wrQLenPdf::7                    338                       # What write queue length does an incoming req see
system.mem_ctrls2.bytesPerActivate::samples        81068                       # Bytes accessed per row activation
system.mem_ctrls2.bytesPerActivate::mean   218.229832                       # Bytes accessed per row activation
system.mem_ctrls2.bytesPerActivate::gmean   139.568785                       # Bytes accessed per row activation
system.mem_ctrls2.bytesPerActivate::stdev   245.799313                       # Bytes accessed per row activation
system.mem_ctrls2.bytesPerActivate::0-127        38373     47.33%     47.33% # Bytes accessed per row activation
system.mem_ctrls2.bytesPerActivate::128-255        16577     20.45%     67.78% # Bytes accessed per row activation
system.mem_ctrls2.bytesPerActivate::256-383        14597     18.01%     85.79% # Bytes accessed per row activation
system.mem_ctrls2.bytesPerActivate::384-511         2611      3.22%     89.01% # Bytes accessed per row activation
system.mem_ctrls2.bytesPerActivate::512-639         1909      2.35%     91.36% # Bytes accessed per row activation
system.mem_ctrls2.bytesPerActivate::640-767         1271      1.57%     92.93% # Bytes accessed per row activation
system.mem_ctrls2.bytesPerActivate::768-895         1124      1.39%     94.32% # Bytes accessed per row activation
system.mem_ctrls2.bytesPerActivate::896-1023          934      1.15%     95.47% # Bytes accessed per row activation
system.mem_ctrls2.bytesPerActivate::1024-1151         3672      4.53%    100.00% # Bytes accessed per row activation
system.mem_ctrls2.bytesPerActivate::total        81068                       # Bytes accessed per row activation
system.mem_ctrls2.rdPerTurnAround::samples        11767                       # Reads before turning the bus around for writes
system.mem_ctrls2.rdPerTurnAround::mean     18.228096                       # Reads before turning the bus around for writes
system.mem_ctrls2.rdPerTurnAround::stdev    76.917598                       # Reads before turning the bus around for writes
system.mem_ctrls2.rdPerTurnAround::0-127        11425     97.09%     97.09% # Reads before turning the bus around for writes
system.mem_ctrls2.rdPerTurnAround::128-255          158      1.34%     98.44% # Reads before turning the bus around for writes
system.mem_ctrls2.rdPerTurnAround::256-383           83      0.71%     99.14% # Reads before turning the bus around for writes
system.mem_ctrls2.rdPerTurnAround::384-511           40      0.34%     99.48% # Reads before turning the bus around for writes
system.mem_ctrls2.rdPerTurnAround::512-639           28      0.24%     99.72% # Reads before turning the bus around for writes
system.mem_ctrls2.rdPerTurnAround::640-767           18      0.15%     99.87% # Reads before turning the bus around for writes
system.mem_ctrls2.rdPerTurnAround::768-895            4      0.03%     99.91% # Reads before turning the bus around for writes
system.mem_ctrls2.rdPerTurnAround::896-1023            3      0.03%     99.93% # Reads before turning the bus around for writes
system.mem_ctrls2.rdPerTurnAround::1152-1279            2      0.02%     99.95% # Reads before turning the bus around for writes
system.mem_ctrls2.rdPerTurnAround::1408-1535            1      0.01%     99.96% # Reads before turning the bus around for writes
system.mem_ctrls2.rdPerTurnAround::1536-1663            1      0.01%     99.97% # Reads before turning the bus around for writes
system.mem_ctrls2.rdPerTurnAround::1664-1791            2      0.02%     99.98% # Reads before turning the bus around for writes
system.mem_ctrls2.rdPerTurnAround::1920-2047            1      0.01%     99.99% # Reads before turning the bus around for writes
system.mem_ctrls2.rdPerTurnAround::2816-2943            1      0.01%    100.00% # Reads before turning the bus around for writes
system.mem_ctrls2.rdPerTurnAround::total        11767                       # Reads before turning the bus around for writes
system.mem_ctrls2.wrPerTurnAround::samples        11767                       # Writes before turning the bus around for reads
system.mem_ctrls2.wrPerTurnAround::mean      5.101215                       # Writes before turning the bus around for reads
system.mem_ctrls2.wrPerTurnAround::gmean     5.070775                       # Writes before turning the bus around for reads
system.mem_ctrls2.wrPerTurnAround::stdev     0.781742                       # Writes before turning the bus around for reads
system.mem_ctrls2.wrPerTurnAround::4-7          11657     99.07%     99.07% # Writes before turning the bus around for reads
system.mem_ctrls2.wrPerTurnAround::8-11            49      0.42%     99.48% # Writes before turning the bus around for reads
system.mem_ctrls2.wrPerTurnAround::12-15           28      0.24%     99.72% # Writes before turning the bus around for reads
system.mem_ctrls2.wrPerTurnAround::16-19           33      0.28%    100.00% # Writes before turning the bus around for reads
system.mem_ctrls2.wrPerTurnAround::total        11767                       # Writes before turning the bus around for reads
system.mem_ctrls2.totQLat                  2834815367                       # Total ticks spent queuing
system.mem_ctrls2.totMemAccLat             6892709117                       # Total ticks spent from burst creation until serviced by the DRAM
system.mem_ctrls2.totBusLat                1082105000                       # Total ticks spent in databus transfers
system.mem_ctrls2.avgQLat                    13098.62                       # Average queueing delay per DRAM burst
system.mem_ctrls2.avgBusLat                   5000.00                       # Average bus latency per DRAM burst
system.mem_ctrls2.avgMemAccLat               31848.62                       # Average memory access latency per DRAM burst
system.mem_ctrls2.avgRdBW                      231.75                       # Average DRAM read bandwidth in MiByte/s
system.mem_ctrls2.avgWrBW                       64.28                       # Average achieved write bandwidth in MiByte/s
system.mem_ctrls2.avgRdBWSys                   231.76                       # Average system read bandwidth in MiByte/s
system.mem_ctrls2.avgWrBWSys                    64.28                       # Average system write bandwidth in MiByte/s
system.mem_ctrls2.peakBW                     12800.00                       # Theoretical peak bandwidth in MiByte/s
system.mem_ctrls2.busUtil                        2.31                       # Data bus utilization in percentage
system.mem_ctrls2.busUtilRead                    1.81                       # Data bus utilization in percentage for reads
system.mem_ctrls2.busUtilWrite                   0.50                       # Data bus utilization in percentage for writes
system.mem_ctrls2.avgRdQLen                      1.10                       # Average read queue length when enqueuing
system.mem_ctrls2.avgWrQLen                      2.98                       # Average write queue length when enqueuing
system.mem_ctrls2.readRowHits                  156549                       # Number of row buffer hits during reads
system.mem_ctrls2.writeRowHits                  38821                       # Number of row buffer hits during writes
system.mem_ctrls2.readRowHitRate                72.34                       # Row buffer hit rate for reads
system.mem_ctrls2.writeRowHitRate               64.67                       # Row buffer hit rate for writes
system.mem_ctrls2.avgGap                    216182.53                       # Average gap between requests
system.mem_ctrls2.pageHitRate                   70.67                       # Row buffer hit rate, read and write combined
system.mem_ctrls2.memoryStateTime::IDLE   11126292250                       # Time in different power states
system.mem_ctrls2.memoryStateTime::REF     1995500000                       # Time in different power states
system.mem_ctrls2.memoryStateTime::PRE_PDN            0                       # Time in different power states
system.mem_ctrls2.memoryStateTime::ACT    46638228750                       # Time in different power states
system.mem_ctrls2.memoryStateTime::ACT_PDN            0                       # Time in different power states
system.mem_ctrls2.actEnergy::0              310867200                       # Energy for activate commands per rank (pJ)
system.mem_ctrls2.actEnergy::1              301999320                       # Energy for activate commands per rank (pJ)
system.mem_ctrls2.preEnergy::0              169620000                       # Energy for precharge commands per rank (pJ)
system.mem_ctrls2.preEnergy::1              164781375                       # Energy for precharge commands per rank (pJ)
system.mem_ctrls2.readEnergy::0             851611800                       # Energy for read commands per rank (pJ)
system.mem_ctrls2.readEnergy::1             836323800                       # Energy for read commands per rank (pJ)
system.mem_ctrls2.writeEnergy::0            197588160                       # Energy for write commands per rank (pJ)
system.mem_ctrls2.writeEnergy::1            191380320                       # Energy for write commands per rank (pJ)
system.mem_ctrls2.refreshEnergy::0         3903198000                       # Energy for refresh commands per rank (pJ)
system.mem_ctrls2.refreshEnergy::1         3903198000                       # Energy for refresh commands per rank (pJ)
system.mem_ctrls2.actBackEnergy::0        25302951225                       # Energy for active background per rank (pJ)
system.mem_ctrls2.actBackEnergy::1        24526829250                       # Energy for active background per rank (pJ)
system.mem_ctrls2.preBackEnergy::0        13660266000                       # Energy for precharge background per rank (pJ)
system.mem_ctrls2.preBackEnergy::1        14341074750                       # Energy for precharge background per rank (pJ)
system.mem_ctrls2.totalEnergy::0          44396102385                       # Total energy per rank (pJ)
system.mem_ctrls2.totalEnergy::1          44265586815                       # Total energy per rank (pJ)
system.mem_ctrls2.averagePower::0          742.910038                       # Core power per rank (mW)
system.mem_ctrls2.averagePower::1          740.726033                       # Core power per rank (mW)
system.mem_ctrls3.bytes_read::ruby.dir_cntrl3     13837056                       # Number of bytes read from this memory
system.mem_ctrls3.bytes_read::total          13837056                       # Number of bytes read from this memory
system.mem_ctrls3.bytes_written::ruby.dir_cntrl3      3838464                       # Number of bytes written to this memory
system.mem_ctrls3.bytes_written::total        3838464                       # Number of bytes written to this memory
system.mem_ctrls3.num_reads::ruby.dir_cntrl3       216204                       # Number of read requests responded to by this memory
system.mem_ctrls3.num_reads::total             216204                       # Number of read requests responded to by this memory
system.mem_ctrls3.num_writes::ruby.dir_cntrl3        59976                       # Number of write requests responded to by this memory
system.mem_ctrls3.num_writes::total             59976                       # Number of write requests responded to by this memory
system.mem_ctrls3.bw_read::ruby.dir_cntrl3    231515920                       # Total read bandwidth from this memory (bytes/s)
system.mem_ctrls3.bw_read::total            231515920                       # Total read bandwidth from this memory (bytes/s)
system.mem_ctrls3.bw_write::ruby.dir_cntrl3     64223598                       # Write bandwidth from this memory (bytes/s)
system.mem_ctrls3.bw_write::total            64223598                       # Write bandwidth from this memory (bytes/s)
system.mem_ctrls3.bw_total::ruby.dir_cntrl3    295739519                       # Total bandwidth to/from this memory (bytes/s)
system.mem_ctrls3.bw_total::total           295739519                       # Total bandwidth to/from this memory (bytes/s)
system.mem_ctrls3.readReqs                     216205                       # Number of read requests accepted
system.mem_ctrls3.writeReqs                     59976                       # Number of write requests accepted
system.mem_ctrls3.readBursts                   216205                       # Number of DRAM read bursts, including those serviced by the write queue
system.mem_ctrls3.writeBursts                   59976                       # Number of DRAM write bursts, including those merged in the write queue
system.mem_ctrls3.bytesReadDRAM              13836416                       # Total number of bytes read from DRAM
system.mem_ctrls3.bytesReadWrQ                    704                       # Total number of bytes read from write queue
system.mem_ctrls3.bytesWritten                3838464                       # Total number of bytes written to DRAM
system.mem_ctrls3.bytesReadSys               13837120                       # Total read bytes from the system interface side
system.mem_ctrls3.bytesWrittenSys             3838464                       # Total written bytes from the system interface side
system.mem_ctrls3.servicedByWrQ                    11                       # Number of DRAM read bursts serviced by the write queue
system.mem_ctrls3.mergedWrBursts                    0                       # Number of DRAM write bursts merged with an existing one
system.mem_ctrls3.neitherReadNorWriteReqs            0                       # Number of requests that are neither read nor write
system.mem_ctrls3.perBankRdBursts::0            13270                       # Per bank write bursts
system.mem_ctrls3.perBankRdBursts::1            13822                       # Per bank write bursts
system.mem_ctrls3.perBankRdBursts::2            13450                       # Per bank write bursts
system.mem_ctrls3.perBankRdBursts::3            13898                       # Per bank write bursts
system.mem_ctrls3.perBankRdBursts::4            13490                       # Per bank write bursts
system.mem_ctrls3.perBankRdBursts::5            14085                       # Per bank write bursts
system.mem_ctrls3.perBankRdBursts::6            13510                       # Per bank write bursts
system.mem_ctrls3.perBankRdBursts::7            13491                       # Per bank write bursts
system.mem_ctrls3.perBankRdBursts::8            13398                       # Per bank write bursts
system.mem_ctrls3.perBankRdBursts::9            13703                       # Per bank write bursts
system.mem_ctrls3.perBankRdBursts::10           13443                       # Per bank write bursts
system.mem_ctrls3.perBankRdBursts::11           13659                       # Per bank write bursts
system.mem_ctrls3.perBankRdBursts::12           13200                       # Per bank write bursts
system.mem_ctrls3.perBankRdBursts::13           13061                       # Per bank write bursts
system.mem_ctrls3.perBankRdBursts::14           13313                       # Per bank write bursts
system.mem_ctrls3.perBankRdBursts::15           13401                       # Per bank write bursts
system.mem_ctrls3.perBankWrBursts::0             3686                       # Per bank write bursts
system.mem_ctrls3.perBankWrBursts::1             3769                       # Per bank write bursts
system.mem_ctrls3.perBankWrBursts::2             3752                       # Per bank write bursts
system.mem_ctrls3.perBankWrBursts::3             3975                       # Per bank write bursts
system.mem_ctrls3.perBankWrBursts::4             3768                       # Per bank write bursts
system.mem_ctrls3.perBankWrBursts::5             3909                       # Per bank write bursts
system.mem_ctrls3.perBankWrBursts::6             3808                       # Per bank write bursts
system.mem_ctrls3.perBankWrBursts::7             3773                       # Per bank write bursts
system.mem_ctrls3.perBankWrBursts::8             3662                       # Per bank write bursts
system.mem_ctrls3.perBankWrBursts::9             3908                       # Per bank write bursts
system.mem_ctrls3.perBankWrBursts::10            3673                       # Per bank write bursts
system.mem_ctrls3.perBankWrBursts::11            3622                       # Per bank write bursts
system.mem_ctrls3.perBankWrBursts::12            3573                       # Per bank write bursts
system.mem_ctrls3.perBankWrBursts::13            3595                       # Per bank write bursts
system.mem_ctrls3.perBankWrBursts::14            3795                       # Per bank write bursts
system.mem_ctrls3.perBankWrBursts::15            3708                       # Per bank write bursts
system.mem_ctrls3.numRdRetry                      240                       # Number of times read queue was full causing retry
system.mem_ctrls3.numWrRetry                      172                       # Number of times write queue was full causing retry
system.mem_ctrls3.totGap                  59766444500                       # Total gap between requests
system.mem_ctrls3.readPktSize::0                    0                       # Read request sizes (log2)
system.mem_ctrls3.readPktSize::1                    0                       # Read request sizes (log2)
system.mem_ctrls3.readPktSize::2                    0                       # Read request sizes (log2)
system.mem_ctrls3.readPktSize::3                    0                       # Read request sizes (log2)
system.mem_ctrls3.readPktSize::4                    0                       # Read request sizes (log2)
[...]
system.ruby.L2Cache_Controller.IS.Mem_Data::total        13546                      
system.ruby.L2Cache_Controller.IM.Mem_Data |        6009      3.16%      3.16% |        5933      3.12%      6.28% |        5941      3.12%      9.40% |        5950      3.13%     12.53% |        5947      3.13%     15.66% |        5947      3.13%     18.78% |        5940      3.12%     21.91% |        5927      3.12%     25.02% |        5949      3.13%     28.15% |        5944      3.13%     31.28% |        5929      3.12%     34.39% |        5949      3.13%     37.52% |        5939      3.12%     40.64% |        5934      3.12%     43.76% |        5932      3.12%     46.88% |        5932      3.12%     50.00% |        5946      3.13%     53.13% |        5946      3.13%     56.25% |        5947      3.13%     59.38% |        5937      3.12%     62.50% |        5943      3.12%     65.63% |        5952      3.13%     68.75% |        5932      3.12%     71.87% |        5940      3.12%     75.00% |        5947      3.13%     78.12% |        5943      3.12%     81.25% |        5953      3.13%     84.38% |        5943      3.12%     87.50% |        5941      3.12%     90.63% |        5946      3.13%     93.75% |        5954      3.13%     96.88% |        5931      3.12%    100.00%
system.ruby.L2Cache_Controller.IM.Mem_Data::total       190203                      
system.ruby.L2Cache_Controller.SS_MB.Exclusive_Unblock |         214     81.37%     81.37% |           6      2.28%     83.65% |           3      1.14%     84.79% |           6      2.28%     87.07% |           0      0.00%     87.07% |           1      0.38%     87.45% |           1      0.38%     87.83% |           0      0.00%     87.83% |           0      0.00%     87.83% |           1      0.38%     88.21% |           0      0.00%     88.21% |           0      0.00%     88.21% |           5      1.90%     90.11% |           0      0.00%     90.11% |           2      0.76%     90.87% |           1      0.38%     91.25% |           0      0.00%     91.25% |           0      0.00%     91.25% |          10      3.80%     95.06% |           2      0.76%     95.82% |           0      0.00%     95.82% |           0      0.00%     95.82% |           0      0.00%     95.82% |           0      0.00%     95.82% |           1      0.38%     96.20% |           0      0.00%     96.20% |           2      0.76%     96.96% |           1      0.38%     97.34% |           4      1.52%     98.86% |           1      0.38%     99.24% |           1      0.38%     99.62% |           1      0.38%    100.00%
system.ruby.L2Cache_Controller.SS_MB.Exclusive_Unblock::total          263                      
system.ruby.L2Cache_Controller.MT_MB.L1_GETS |           0      0.00%      0.00% |           0      0.00%      0.00% |           0      0.00%      0.00% |           1      7.14%      7.14% |           0      0.00%      7.14% |           0      0.00%      7.14% |           0      0.00%      7.14% |           0      0.00%      7.14% |           0      0.00%      7.14% |           0      0.00%      7.14% |           0      0.00%      7.14% |           0      0.00%      7.14% |           0      0.00%      7.14% |           0      0.00%      7.14% |           0      0.00%      7.14% |           0      0.00%      7.14% |           0      0.00%      7.14% |           6     42.86%     50.00% |           7     50.00%    100.00% |           0      0.00%    100.00% |           0      0.00%    100.00% |           0      0.00%    100.00% |           0      0.00%    100.00% |           0      0.00%    100.00% |           0      0.00%    100.00% |           0      0.00%    100.00% |           0      0.00%    100.00% |           0      0.00%    100.00% |           0      0.00%    100.00% |           0      0.00%    100.00% |           0      0.00%    100.00% |           0      0.00%    100.00%
system.ruby.L2Cache_Controller.MT_MB.L1_GETS::total           14                      
system.ruby.L2Cache_Controller.MT_MB.Exclusive_Unblock |       77652      7.09%      7.09% |       33388      3.05%     10.14% |       32686      2.99%     13.13% |       32854      3.00%     16.13% |       33108      3.02%     19.15% |       32033      2.93%     22.08% |       31958      2.92%     24.99% |       31675      2.89%     27.89% |       33956      3.10%     30.99% |       32356      2.95%     33.94% |       34304      3.13%     37.08% |       33125      3.03%     40.10% |       32695      2.99%     43.09% |       31745      2.90%     45.99% |       31778      2.90%     48.89% |       31669      2.89%     51.78% |       34274      3.13%     54.91% |       32114      2.93%     57.84% |       32965      3.01%     60.85% |       32542      2.97%     63.82% |       33034      3.02%     66.84% |       32476      2.97%     69.81% |       33015      3.02%     72.82% |       32009      2.92%     75.75% |       33649      3.07%     78.82% |       32342      2.95%     81.77% |       32844      3.00%     84.77% |       31819      2.91%     87.68% |       33167      3.03%     90.71% |       31907      2.91%     93.62% |       34282      3.13%     96.75% |       35575      3.25%    100.00%
system.ruby.L2Cache_Controller.MT_MB.Exclusive_Unblock::total      1094996                      
system.ruby.L2Cache_Controller.MT_IIB.L1_GETS |           1      4.35%      4.35% |           2      8.70%     13.04% |           1      4.35%     17.39% |           0      0.00%     17.39% |           0      0.00%     17.39% |           0      0.00%     17.39% |           0      0.00%     17.39% |           0      0.00%     17.39% |           0      0.00%     17.39% |           0      0.00%     17.39% |           0      0.00%     17.39% |           0      0.00%     17.39% |           0      0.00%     17.39% |           0      0.00%     17.39% |           0      0.00%     17.39% |           0      0.00%     17.39% |           0      0.00%     17.39% |           6     26.09%     43.48% |           6     26.09%     69.57% |           7     30.43%    100.00% |           0      0.00%    100.00% |           0      0.00%    100.00% |           0      0.00%    100.00% |           0      0.00%    100.00% |           0      0.00%    100.00% |           0      0.00%    100.00% |           0      0.00%    100.00% |           0      0.00%    100.00% |           0      0.00%    100.00% |           0      0.00%    100.00% |           0      0.00%    100.00% |           0      0.00%    100.00%
system.ruby.L2Cache_Controller.MT_IIB.L1_GETS::total           23                      
system.ruby.L2Cache_Controller.MT_IIB.WB_Data |         182      7.84%      7.84% |          70      3.02%     10.86% |          69      2.97%     13.84% |          64      2.76%     16.59% |          69      2.97%     19.57% |          69      2.97%     22.54% |          69      2.97%     25.52% |          69      2.97%     28.49% |          69      2.97%     31.47% |          69      2.97%     34.44% |          69      2.97%     37.41% |          64      2.76%     40.17% |          73      3.15%     43.32% |          69      2.97%     46.29% |          69      2.97%     49.27% |          69      2.97%     52.24% |          69      2.97%     55.22% |          69      2.97%     58.19% |          70      3.02%     61.21% |          68      2.93%     64.14% |          69      2.97%     67.11% |          69      2.97%     70.09% |          71      3.06%     73.15% |          69      2.97%     76.12% |          69      2.97%     79.09% |          69      2.97%     82.07% |          69      2.97%     85.04% |          69      2.97%     88.02% |          71      3.06%     91.08% |          69      2.97%     94.05% |          69      2.97%     97.03% |          69      2.97%    100.00%
system.ruby.L2Cache_Controller.MT_IIB.WB_Data::total         2320                      
system.ruby.L2Cache_Controller.MT_IIB.WB_Data_clean |         590     96.72%     96.72% |           4      0.66%     97.38% |           3      0.49%     97.87% |           3      0.49%     98.36% |           0      0.00%     98.36% |           0      0.00%     98.36% |           0      0.00%     98.36% |           0      0.00%     98.36% |           0      0.00%     98.36% |           0      0.00%     98.36% |           0      0.00%     98.36% |           0      0.00%     98.36% |           0      0.00%     98.36% |           0      0.00%     98.36% |           1      0.16%     98.52% |           0      0.00%     98.52% |           1      0.16%     98.69% |           3      0.49%     99.18% |           3      0.49%     99.67% |           2      0.33%    100.00% |           0      0.00%    100.00% |           0      0.00%    100.00% |           0      0.00%    100.00% |           0      0.00%    100.00% |           0      0.00%    100.00% |           0      0.00%    100.00% |           0      0.00%    100.00% |           0      0.00%    100.00% |           0      0.00%    100.00% |           0      0.00%    100.00% |           0      0.00%    100.00% |           0      0.00%    100.00%
system.ruby.L2Cache_Controller.MT_IIB.WB_Data_clean::total          610                      
system.ruby.L2Cache_Controller.MT_IIB.Unblock |           0      0.00%      0.00% |           1      7.14%      7.14% |           0      0.00%      7.14% |           5     35.71%     42.86% |           0      0.00%     42.86% |           0      0.00%     42.86% |           0      0.00%     42.86% |           0      0.00%     42.86% |           0      0.00%     42.86% |           0      0.00%     42.86% |           0      0.00%     42.86% |           5     35.71%     78.57% |           0      0.00%     78.57% |           0      0.00%     78.57% |           0      0.00%     78.57% |           0      0.00%     78.57% |           0      0.00%     78.57% |           0      0.00%     78.57% |           0      0.00%     78.57% |           2     14.29%     92.86% |           0      0.00%     92.86% |           0      0.00%     92.86% |           0      0.00%     92.86% |           0      0.00%     92.86% |           0      0.00%     92.86% |           1      7.14%    100.00% |           0      0.00%    100.00% |           0      0.00%    100.00% |           0      0.00%    100.00% |           0      0.00%    100.00% |           0      0.00%    100.00% |           0      0.00%    100.00%
system.ruby.L2Cache_Controller.MT_IIB.Unblock::total           14                      
system.ruby.L2Cache_Controller.MT_IB.WB_Data |           0      0.00%      0.00% |           1      7.14%      7.14% |           0      0.00%      7.14% |           5     35.71%     42.86% |           0      0.00%     42.86% |           0      0.00%     42.86% |           0      0.00%     42.86% |           0      0.00%     42.86% |           0      0.00%     42.86% |           0      0.00%     42.86% |           0      0.00%     42.86% |           5     35.71%     78.57% |           0      0.00%     78.57% |           0      0.00%     78.57% |           0      0.00%     78.57% |           0      0.00%     78.57% |           0      0.00%     78.57% |           0      0.00%     78.57% |           0      0.00%     78.57% |           2     14.29%     92.86% |           0      0.00%     92.86% |           0      0.00%     92.86% |           0      0.00%     92.86% |           0      0.00%     92.86% |           0      0.00%     92.86% |           1      7.14%    100.00% |           0      0.00%    100.00% |           0      0.00%    100.00% |           0      0.00%    100.00% |           0      0.00%    100.00% |           0      0.00%    100.00% |           0      0.00%    100.00%
system.ruby.L2Cache_Controller.MT_IB.WB_Data::total           14                      
system.ruby.L2Cache_Controller.MT_SB.L1_GETS |           0      0.00%      0.00% |           1     25.00%     25.00% |           1     25.00%     50.00% |           2     50.00%    100.00% |           0      0.00%    100.00% |           0      0.00%    100.00% |           0      0.00%    100.00% |           0      0.00%    100.00% |           0      0.00%    100.00% |           0      0.00%    100.00% |           0      0.00%    100.00% |           0      0.00%    100.00% |           0      0.00%    100.00% |           0      0.00%    100.00% |           0      0.00%    100.00% |           0      0.00%    100.00% |           0      0.00%    100.00% |           0      0.00%    100.00% |           0      0.00%    100.00% |           0      0.00%    100.00% |           0      0.00%    100.00% |           0      0.00%    100.00% |           0      0.00%    100.00% |           0      0.00%    100.00% |           0      0.00%    100.00% |           0      0.00%    100.00% |           0      0.00%    100.00% |           0      0.00%    100.00% |           0      0.00%    100.00% |           0      0.00%    100.00% |           0      0.00%    100.00% |           0      0.00%    100.00%
system.ruby.L2Cache_Controller.MT_SB.L1_GETS::total            4                      
system.ruby.L2Cache_Controller.MT_SB.Unblock |         772     26.35%     26.35% |          74      2.53%     28.87% |          72      2.46%     31.33% |          67      2.29%     33.62% |          69      2.35%     35.97% |          69      2.35%     38.33% |          69      2.35%     40.68% |          69      2.35%     43.04% |          69      2.35%     45.39% |          69      2.35%     47.75% |          69      2.35%     50.10% |          64      2.18%     52.29% |          73      2.49%     54.78% |          69      2.35%     57.13% |          70      2.39%     59.52% |          69      2.35%     61.88% |          70      2.39%     64.27% |          72      2.46%     66.72% |          73      2.49%     69.22% |          70      2.39%     71.60% |          69      2.35%     73.96% |          69      2.35%     76.31% |          71      2.42%     78.74% |          69      2.35%     81.09% |          69      2.35%     83.45% |          69      2.35%     85.80% |          69      2.35%     88.16% |          69      2.35%     90.51% |          71      2.42%     92.94% |          69      2.35%     95.29% |          69      2.35%     97.65% |          69      2.35%    100.00%
system.ruby.L2Cache_Controller.MT_SB.Unblock::total         2930                      
system.ruby.SimicsNetworkPortInterface_Controller.MessageSend |       78710      4.39%      4.39% |      895809     50.00%     54.39% |      108252      6.04%     60.44% |      103761      5.79%     66.23% |      101256      5.65%     71.88% |      103882      5.80%     77.68% |      101387      5.66%     83.34% |      102781      5.74%     89.07% |       97425      5.44%     94.51% |       98355      5.49%    100.00% |           0      0.00%    100.00% |           0      0.00%    100.00% |           0      0.00%    100.00% |           0      0.00%    100.00% |           0      0.00%    100.00% |           0      0.00%    100.00% |           0      0.00%    100.00% |           0      0.00%    100.00% |           0      0.00%    100.00% |           0      0.00%    100.00% |           0      0.00%    100.00% |           0      0.00%    100.00% |           0      0.00%    100.00% |           0      0.00%    100.00% |           0      0.00%    100.00% |           0      0.00%    100.00% |           0      0.00%    100.00% |           0      0.00%    100.00% |           0      0.00%    100.00% |           0      0.00%    100.00% |           0      0.00%    100.00% |           0      0.00%    100.00%
system.ruby.SimicsNetworkPortInterface_Controller.MessageSend::total      1791618                      
system.ruby.SimicsNetworkPortInterface_Controller.MessageRecv |       78710      4.39%      4.39% |      895809     50.00%     54.39% |      108252      6.04%     60.44% |      103761      5.79%     66.23% |      101256      5.65%     71.88% |      103882      5.80%     77.68% |      101387      5.66%     83.34% |      102781      5.74%     89.07% |       97425      5.44%     94.51% |       98355      5.49%    100.00% |           0      0.00%    100.00% |           0      0.00%    100.00% |           0      0.00%    100.00% |           0      0.00%    100.00% |           0      0.00%    100.00% |           0      0.00%    100.00% |           0      0.00%    100.00% |           0      0.00%    100.00% |           0      0.00%    100.00% |           0      0.00%    100.00% |           0      0.00%    100.00% |           0      0.00%    100.00% |           0      0.00%    100.00% |           0      0.00%    100.00% |           0      0.00%    100.00% |           0      0.00%    100.00% |           0      0.00%    100.00% |           0      0.00%    100.00% |           0      0.00%    100.00% |           0      0.00%    100.00% |           0      0.00%    100.00% |           0      0.00%    100.00%
system.ruby.SimicsNetworkPortInterface_Controller.MessageRecv::total      1791618                      
system.ruby.SimicsNetworkPortInterface_Controller.A.MessageSend |       78710      4.39%      4.39% |      895809     50.00%     54.39% |      108252      6.04%     60.44% |      103761      5.79%     66.23% |      101256      5.65%     71.88% |      103882      5.80%     77.68% |      101387      5.66%     83.34% |      102781      5.74%     89.07% |       97425      5.44%     94.51% |       98355      5.49%    100.00% |           0      0.00%    100.00% |           0      0.00%    100.00% |           0      0.00%    100.00% |           0      0.00%    100.00% |           0      0.00%    100.00% |           0      0.00%    100.00% |           0      0.00%    100.00% |           0      0.00%    100.00% |           0      0.00%    100.00% |           0      0.00%    100.00% |           0      0.00%    100.00% |           0      0.00%    100.00% |           0      0.00%    100.00% |           0      0.00%    100.00% |           0      0.00%    100.00% |           0      0.00%    100.00% |           0      0.00%    100.00% |           0      0.00%    100.00% |           0      0.00%    100.00% |           0      0.00%    100.00% |           0      0.00%    100.00% |           0      0.00%    100.00%
system.ruby.SimicsNetworkPortInterface_Controller.A.MessageSend::total      1791618                      
system.ruby.SimicsNetworkPortInterface_Controller.A.MessageRecv |       78710      4.39%      4.39% |      895809     50.00%     54.39% |      108252      6.04%     60.44% |      103761      5.79%     66.23% |      101256      5.65%     71.88% |      103882      5.80%     77.68% |      101387      5.66%     83.34% |      102781      5.74%     89.07% |       97425      5.44%     94.51% |       98355      5.49%    100.00% |           0      0.00%    100.00% |           0      0.00%    100.00% |           0      0.00%    100.00% |           0      0.00%    100.00% |           0      0.00%    100.00% |           0      0.00%    100.00% |           0      0.00%    100.00% |           0      0.00%    100.00% |           0      0.00%    100.00% |           0      0.00%    100.00% |           0      0.00%    100.00% |           0      0.00%    100.00% |           0      0.00%    100.00% |           0      0.00%    100.00% |           0      0.00%    100.00% |           0      0.00%    100.00% |           0      0.00%    100.00% |           0      0.00%    100.00% |           0      0.00%    100.00% |           0      0.00%    100.00% |           0      0.00%    100.00% |           0      0.00%    100.00%
system.ruby.SimicsNetworkPortInterface_Controller.A.MessageRecv::total      1791618                      
system.switch_cpus.kern.inst.arm                    0                       # number of arm instructions executed
system.switch_cpus.kern.inst.quiesce                0                       # number of quiesce instructions executed

---------- End Simulation Statistics   ----------
