
---------- Begin Simulation Statistics ----------
sim_seconds                                  0.127509                       # Number of seconds simulated
sim_ticks                                127509121500                       # Number of ticks simulated
final_tick                               5303677200000                       # Number of ticks from beginning of simulation (restored from checkpoints and never reset)
sim_freq                                 1000000000000                       # Frequency of simulated ticks
host_inst_rate                                  47368                       # Simulator instruction rate (inst/s)
host_op_rate                                    82233                       # Simulator op (including micro ops) rate (op/s)
host_tick_rate                               93996578                       # Simulator tick rate (ticks/s)
host_mem_usage                                9547524                       # Number of bytes of host memory used
host_seconds                                  1356.53                       # Real time elapsed on the host
sim_insts                                    64256008                       # Number of instructions simulated
sim_ops                                     111550977                       # Number of ops (including micro ops) simulated
system.voltage_domain.voltage                       1                       # Voltage in Volts
system.clk_domain.clock                           500                       # Clock period in ticks
system.mem_ctrls0.bytes_read::ruby.dir_cntrl0     41748544                       # Number of bytes read from this memory
system.mem_ctrls0.bytes_read::total          41748544                       # Number of bytes read from this memory
system.mem_ctrls0.bytes_written::ruby.dir_cntrl0     19582720                       # Number of bytes written to this memory
system.mem_ctrls0.bytes_written::total       19582720                       # Number of bytes written to this memory
system.mem_ctrls0.num_reads::ruby.dir_cntrl0       652321                       # Number of read requests responded to by this memory
system.mem_ctrls0.num_reads::total             652321                       # Number of read requests responded to by this memory
system.mem_ctrls0.num_writes::ruby.dir_cntrl0       305980                       # Number of write requests responded to by this memory
system.mem_ctrls0.num_writes::total            305980                       # Number of write requests responded to by this memory
system.mem_ctrls0.bw_read::ruby.dir_cntrl0    327416137                       # Total read bandwidth from this memory (bytes/s)
system.mem_ctrls0.bw_read::total            327416137                       # Total read bandwidth from this memory (bytes/s)
system.mem_ctrls0.bw_write::ruby.dir_cntrl0    153578974                       # Write bandwidth from this memory (bytes/s)
system.mem_ctrls0.bw_write::total           153578974                       # Write bandwidth from this memory (bytes/s)
system.mem_ctrls0.bw_total::ruby.dir_cntrl0    480995111                       # Total bandwidth to/from this memory (bytes/s)
system.mem_ctrls0.bw_total::total           480995111                       # Total bandwidth to/from this memory (bytes/s)
system.mem_ctrls0.readReqs                     652321                       # Number of read requests accepted
system.mem_ctrls0.writeReqs                    305980                       # Number of write requests accepted
system.mem_ctrls0.readBursts                   652321                       # Number of DRAM read bursts, including those serviced by the write queue
system.mem_ctrls0.writeBursts                  305980                       # Number of DRAM write bursts, including those merged in the write queue
system.mem_ctrls0.bytesReadDRAM              41733696                       # Total number of bytes read from DRAM
system.mem_ctrls0.bytesReadWrQ                  14848                       # Total number of bytes read from write queue
system.mem_ctrls0.bytesWritten               19582464                       # Total number of bytes written to DRAM
system.mem_ctrls0.bytesReadSys               41748544                       # Total read bytes from the system interface side
system.mem_ctrls0.bytesWrittenSys            19582720                       # Total written bytes from the system interface side
system.mem_ctrls0.servicedByWrQ                   232                       # Number of DRAM read bursts serviced by the write queue
system.mem_ctrls0.mergedWrBursts                    0                       # Number of DRAM write bursts merged with an existing one
system.mem_ctrls0.neitherReadNorWriteReqs            0                       # Number of requests that are neither read nor write
system.mem_ctrls0.perBankRdBursts::0            41003                       # Per bank write bursts
system.mem_ctrls0.perBankRdBursts::1            40740                       # Per bank write bursts
system.mem_ctrls0.perBankRdBursts::2            40450                       # Per bank write bursts
system.mem_ctrls0.perBankRdBursts::3            41057                       # Per bank write bursts
system.mem_ctrls0.perBankRdBursts::4            40325                       # Per bank write bursts
system.mem_ctrls0.perBankRdBursts::5            40744                       # Per bank write bursts
system.mem_ctrls0.perBankRdBursts::6            41582                       # Per bank write bursts
system.mem_ctrls0.perBankRdBursts::7            41295                       # Per bank write bursts
system.mem_ctrls0.perBankRdBursts::8            40543                       # Per bank write bursts
system.mem_ctrls0.perBankRdBursts::9            40357                       # Per bank write bursts
system.mem_ctrls0.perBankRdBursts::10           40235                       # Per bank write bursts
system.mem_ctrls0.perBankRdBursts::11           41070                       # Per bank write bursts
system.mem_ctrls0.perBankRdBursts::12           40098                       # Per bank write bursts
system.mem_ctrls0.perBankRdBursts::13           40414                       # Per bank write bursts
system.mem_ctrls0.perBankRdBursts::14           41022                       # Per bank write bursts
system.mem_ctrls0.perBankRdBursts::15           41154                       # Per bank write bursts
system.mem_ctrls0.perBankWrBursts::0            19182                       # Per bank write bursts
system.mem_ctrls0.perBankWrBursts::1            19102                       # Per bank write bursts
system.mem_ctrls0.perBankWrBursts::2            19066                       # Per bank write bursts
system.mem_ctrls0.perBankWrBursts::3            19190                       # Per bank write bursts
system.mem_ctrls0.perBankWrBursts::4            19059                       # Per bank write bursts
system.mem_ctrls0.perBankWrBursts::5            19231                       # Per bank write bursts
system.mem_ctrls0.perBankWrBursts::6            19327                       # Per bank write bursts
system.mem_ctrls0.perBankWrBursts::7            19349                       # Per bank write bursts
system.mem_ctrls0.perBankWrBursts::8            19082                       # Per bank write bursts
system.mem_ctrls0.perBankWrBursts::9            19115                       # Per bank write bursts
system.mem_ctrls0.perBankWrBursts::10           18928                       # Per bank write bursts
system.mem_ctrls0.perBankWrBursts::11           19066                       # Per bank write bursts
system.mem_ctrls0.perBankWrBursts::12           18920                       # Per bank write bursts
system.mem_ctrls0.perBankWrBursts::13           19044                       # Per bank write bursts
system.mem_ctrls0.perBankWrBursts::14           19177                       # Per bank write bursts
system.mem_ctrls0.perBankWrBursts::15           19138                       # Per bank write bursts
system.mem_ctrls0.numRdRetry                      744                       # Number of times read queue was full causing retry
system.mem_ctrls0.numWrRetry                     5480                       # Number of times write queue was full causing retry
system.mem_ctrls0.totGap                 127508717500                       # Total gap between requests
system.mem_ctrls0.readPktSize::0                    0                       # Read request sizes (log2)
system.mem_ctrls0.readPktSize::1                    0                       # Read request sizes (log2)
system.mem_ctrls0.readPktSize::2                    0                       # Read request sizes (log2)
system.mem_ctrls0.readPktSize::3                    0                       # Read request sizes (log2)
system.mem_ctrls0.readPktSize::4                    0                       # Read request sizes (log2)
system.mem_ctrls0.readPktSize::5                    0                       # Read request sizes (log2)
system.mem_ctrls0.readPktSize::6               652321                       # Read request sizes (log2)
system.mem_ctrls0.writePktSize::0                   0                       # Write request sizes (log2)
system.mem_ctrls0.writePktSize::1                   0                       # Write request sizes (log2)
system.mem_ctrls0.writePktSize::2                   0                       # Write request sizes (log2)
system.mem_ctrls0.writePktSize::3                   0                       # Write request sizes (log2)
system.mem_ctrls0.writePktSize::4                   0                       # Write request sizes (log2)
system.mem_ctrls0.writePktSize::5                   0                       # Write request sizes (log2)
system.mem_ctrls0.writePktSize::6              305980                       # Write request sizes (log2)
system.mem_ctrls0.rdQLenPdf::0                 246655                       # What read queue length does an incoming req see
system.mem_ctrls0.rdQLenPdf::1                  84847                       # What read queue length does an incoming req see
system.mem_ctrls0.rdQLenPdf::2                  69686                       # What read queue length does an incoming req see
system.mem_ctrls0.rdQLenPdf::3                  58778                       # What read queue length does an incoming req see
system.mem_ctrls0.rdQLenPdf::4                  46886                       # What read queue length does an incoming req see
system.mem_ctrls0.rdQLenPdf::5                  36567                       # What read queue length does an incoming req see
system.mem_ctrls0.rdQLenPdf::6                  28019                       # What read queue length does an incoming req see
system.mem_ctrls0.rdQLenPdf::7                  20343                       # What read queue length does an incoming req see
system.mem_ctrls0.rdQLenPdf::8                  13752                       # What read queue length does an incoming req see
system.mem_ctrls0.rdQLenPdf::9                  10443                       # What read queue length does an incoming req see
system.mem_ctrls0.rdQLenPdf::10                  7865                       # What read queue length does an incoming req see
system.mem_ctrls0.rdQLenPdf::11                  5880                       # What read queue length does an incoming req see
system.mem_ctrls0.rdQLenPdf::12                  4437                       # What read queue length does an incoming req see
system.mem_ctrls0.rdQLenPdf::13                  3325                       # What read queue length does an incoming req see
system.mem_ctrls0.rdQLenPdf::14                  2628                       # What read queue length does an incoming req see
system.mem_ctrls0.rdQLenPdf::15                  2073                       # What read queue length does an incoming req see
system.mem_ctrls0.rdQLenPdf::16                  1645                       # What read queue length does an incoming req see
system.mem_ctrls0.rdQLenPdf::17                  1384                       # What read queue length does an incoming req see
system.mem_ctrls0.rdQLenPdf::18                  1102                       # What read queue length does an incoming req see
system.mem_ctrls0.rdQLenPdf::19                   877                       # What read queue length does an incoming req see
system.mem_ctrls0.rdQLenPdf::20                   766                       # What read queue length does an incoming req see
system.mem_ctrls0.rdQLenPdf::21                   626                       # What read queue length does an incoming req see
system.mem_ctrls0.rdQLenPdf::22                   524                       # What read queue length does an incoming req see
system.mem_ctrls0.rdQLenPdf::23                   436                       # What read queue length does an incoming req see
system.mem_ctrls0.rdQLenPdf::24                   366                       # What read queue length does an incoming req see
system.mem_ctrls0.rdQLenPdf::25                   298                       # What read queue length does an incoming req see
system.mem_ctrls0.rdQLenPdf::26                   262                       # What read queue length does an incoming req see
system.mem_ctrls0.rdQLenPdf::27                   206                       # What read queue length does an incoming req see
system.mem_ctrls0.rdQLenPdf::28                   191                       # What read queue length does an incoming req see
system.mem_ctrls0.rdQLenPdf::29                   172                       # What read queue length does an incoming req see
system.mem_ctrls0.rdQLenPdf::30                   151                       # What read queue length does an incoming req see
system.mem_ctrls0.rdQLenPdf::31                   899                       # What read queue length does an incoming req see
system.mem_ctrls0.wrQLenPdf::0                  49872                       # What write queue length does an incoming req see
system.mem_ctrls0.wrQLenPdf::1                  54503                       # What write queue length does an incoming req see
system.mem_ctrls0.wrQLenPdf::2                  56626                       # What write queue length does an incoming req see
system.mem_ctrls0.wrQLenPdf::3                  58045                       # What write queue length does an incoming req see
system.mem_ctrls0.wrQLenPdf::4                  58929                       # What write queue length does an incoming req see
system.mem_ctrls0.wrQLenPdf::5                  10799                       # What write queue length does an incoming req see
system.mem_ctrls0.wrQLenPdf::6                   7196                       # What write queue length does an incoming req see
system.mem_ctrls0.wrQLenPdf::7                  10010                       # What write queue length does an incoming req see
system.mem_ctrls0.bytesPerActivate::samples       280372                       # Bytes accessed per row activation
system.mem_ctrls0.bytesPerActivate::mean   218.694591                       # Bytes accessed per row activation
system.mem_ctrls0.bytesPerActivate::gmean   167.932686                       # Bytes accessed per row activation
system.mem_ctrls0.bytesPerActivate::stdev   160.340924                       # Bytes accessed per row activation
system.mem_ctrls0.bytesPerActivate::0-127        79401     28.32%     28.32% # Bytes accessed per row activation
system.mem_ctrls0.bytesPerActivate::128-255        84942     30.30%     58.62% # Bytes accessed per row activation
system.mem_ctrls0.bytesPerActivate::256-383        72653     25.91%     84.53% # Bytes accessed per row activation
system.mem_ctrls0.bytesPerActivate::384-511        19918      7.10%     91.63% # Bytes accessed per row activation
system.mem_ctrls0.bytesPerActivate::512-639        17353      6.19%     97.82% # Bytes accessed per row activation
system.mem_ctrls0.bytesPerActivate::640-767         2778      0.99%     98.81% # Bytes accessed per row activation
system.mem_ctrls0.bytesPerActivate::768-895         1661      0.59%     99.41% # Bytes accessed per row activation
system.mem_ctrls0.bytesPerActivate::896-1023         1170      0.42%     99.82% # Bytes accessed per row activation
system.mem_ctrls0.bytesPerActivate::1024-1151          496      0.18%    100.00% # Bytes accessed per row activation
system.mem_ctrls0.bytesPerActivate::total       280372                       # Bytes accessed per row activation
system.mem_ctrls0.rdPerTurnAround::samples        50560                       # Reads before turning the bus around for writes
system.mem_ctrls0.rdPerTurnAround::mean     12.897112                       # Reads before turning the bus around for writes
system.mem_ctrls0.rdPerTurnAround::stdev    38.779295                       # Reads before turning the bus around for writes
system.mem_ctrls0.rdPerTurnAround::0-127        50117     99.12%     99.12% # Reads before turning the bus around for writes
system.mem_ctrls0.rdPerTurnAround::128-255          297      0.59%     99.71% # Reads before turning the bus around for writes
system.mem_ctrls0.rdPerTurnAround::256-383           63      0.12%     99.84% # Reads before turning the bus around for writes
system.mem_ctrls0.rdPerTurnAround::384-511           34      0.07%     99.90% # Reads before turning the bus around for writes
system.mem_ctrls0.rdPerTurnAround::512-639           14      0.03%     99.93% # Reads before turning the bus around for writes
system.mem_ctrls0.rdPerTurnAround::640-767           11      0.02%     99.95% # Reads before turning the bus around for writes
system.mem_ctrls0.rdPerTurnAround::768-895           11      0.02%     99.97% # Reads before turning the bus around for writes
system.mem_ctrls0.rdPerTurnAround::896-1023            6      0.01%     99.99% # Reads before turning the bus around for writes
system.mem_ctrls0.rdPerTurnAround::1024-1151            2      0.00%     99.99% # Reads before turning the bus around for writes
system.mem_ctrls0.rdPerTurnAround::1152-1279            1      0.00%     99.99% # Reads before turning the bus around for writes
system.mem_ctrls0.rdPerTurnAround::1280-1407            1      0.00%     99.99% # Reads before turning the bus around for writes
system.mem_ctrls0.rdPerTurnAround::1408-1535            2      0.00%    100.00% # Reads before turning the bus around for writes
system.mem_ctrls0.rdPerTurnAround::3968-4095            1      0.00%    100.00% # Reads before turning the bus around for writes
system.mem_ctrls0.rdPerTurnAround::total        50560                       # Reads before turning the bus around for writes
system.mem_ctrls0.wrPerTurnAround::samples        50560                       # Writes before turning the bus around for reads
system.mem_ctrls0.wrPerTurnAround::mean      6.051741                       # Writes before turning the bus around for reads
system.mem_ctrls0.wrPerTurnAround::gmean     5.776572                       # Writes before turning the bus around for reads
system.mem_ctrls0.wrPerTurnAround::stdev     2.259306                       # Writes before turning the bus around for reads
system.mem_ctrls0.wrPerTurnAround::4-7          42538     84.13%     84.13% # Writes before turning the bus around for reads
system.mem_ctrls0.wrPerTurnAround::8-11          5741     11.35%     95.49% # Writes before turning the bus around for reads
system.mem_ctrls0.wrPerTurnAround::12-15         1391      2.75%     98.24% # Writes before turning the bus around for reads
system.mem_ctrls0.wrPerTurnAround::16-19          890      1.76%    100.00% # Writes before turning the bus around for reads
system.mem_ctrls0.wrPerTurnAround::total        50560                       # Writes before turning the bus around for reads
system.mem_ctrls0.totQLat                 27941768017                       # Total ticks spent queuing
system.mem_ctrls0.totMemAccLat            40168436767                       # Total ticks spent from burst creation until serviced by the DRAM
system.mem_ctrls0.totBusLat                3260445000                       # Total ticks spent in databus transfers
system.mem_ctrls0.avgQLat                    42849.62                       # Average queueing delay per DRAM burst
system.mem_ctrls0.avgBusLat                   5000.00                       # Average bus latency per DRAM burst
system.mem_ctrls0.avgMemAccLat               61599.62                       # Average memory access latency per DRAM burst
system.mem_ctrls0.avgRdBW                      327.30                       # Average DRAM read bandwidth in MiByte/s
system.mem_ctrls0.avgWrBW                      153.58                       # Average achieved write bandwidth in MiByte/s
system.mem_ctrls0.avgRdBWSys                   327.42                       # Average system read bandwidth in MiByte/s
system.mem_ctrls0.avgWrBWSys                   153.58                       # Average system write bandwidth in MiByte/s
system.mem_ctrls0.peakBW                     12800.00                       # Theoretical peak bandwidth in MiByte/s
system.mem_ctrls0.busUtil                        3.76                       # Data bus utilization in percentage
system.mem_ctrls0.busUtilRead                    2.56                       # Data bus utilization in percentage for reads
system.mem_ctrls0.busUtilWrite                   1.20                       # Data bus utilization in percentage for writes
system.mem_ctrls0.avgRdQLen                      1.46                       # Average read queue length when enqueuing
system.mem_ctrls0.avgWrQLen                      3.04                       # Average write queue length when enqueuing
system.mem_ctrls0.readRowHits                  493728                       # Number of row buffer hits during reads
system.mem_ctrls0.writeRowHits                 183963                       # Number of row buffer hits during writes
system.mem_ctrls0.readRowHitRate                75.71                       # Row buffer hit rate for reads
system.mem_ctrls0.writeRowHitRate               60.12                       # Row buffer hit rate for writes
system.mem_ctrls0.avgGap                    133057.06                       # Average gap between requests
system.mem_ctrls0.pageHitRate                   70.74                       # Row buffer hit rate, read and write combined
system.mem_ctrls0.memoryStateTime::IDLE   20291051750                       # Time in different power states
system.mem_ctrls0.memoryStateTime::REF     4257760000                       # Time in different power states
system.mem_ctrls0.memoryStateTime::PRE_PDN            0                       # Time in different power states
system.mem_ctrls0.memoryStateTime::ACT   102959342250                       # Time in different power states
system.mem_ctrls0.memoryStateTime::ACT_PDN            0                       # Time in different power states
system.mem_ctrls0.actEnergy::0             1065385440                       # Energy for activate commands per rank (pJ)
system.mem_ctrls0.actEnergy::1             1054226880                       # Energy for activate commands per rank (pJ)
system.mem_ctrls0.preEnergy::0              581311500                       # Energy for precharge commands per rank (pJ)
system.mem_ctrls0.preEnergy::1              575223000                       # Energy for precharge commands per rank (pJ)
system.mem_ctrls0.readEnergy::0            2552121000                       # Energy for read commands per rank (pJ)
system.mem_ctrls0.readEnergy::1            2534134200                       # Energy for read commands per rank (pJ)
system.mem_ctrls0.writeEnergy::0            994718880                       # Energy for write commands per rank (pJ)
system.mem_ctrls0.writeEnergy::1            988005600                       # Energy for write commands per rank (pJ)
system.mem_ctrls0.refreshEnergy::0         8328178560                       # Energy for refresh commands per rank (pJ)
system.mem_ctrls0.refreshEnergy::1         8328178560                       # Energy for refresh commands per rank (pJ)
system.mem_ctrls0.actBackEnergy::0        54584187525                       # Energy for active background per rank (pJ)
system.mem_ctrls0.actBackEnergy::1        54120280770                       # Energy for active background per rank (pJ)
system.mem_ctrls0.preBackEnergy::0        28623867750                       # Energy for precharge background per rank (pJ)
system.mem_ctrls0.preBackEnergy::1        29030803500                       # Energy for precharge background per rank (pJ)
system.mem_ctrls0.totalEnergy::0          96729770655                       # Total energy per rank (pJ)
system.mem_ctrls0.totalEnergy::1          96630852510                       # Total energy per rank (pJ)
system.mem_ctrls0.averagePower::0          758.617923                       # Core power per rank (mW)
system.mem_ctrls0.averagePower::1          757.842142                       # Core power per rank (mW)
system.mem_ctrls1.bytes_read::ruby.dir_cntrl1     41148480                       # Number of bytes read from this memory
system.mem_ctrls1.bytes_read::total          41148480                       # Number of bytes read from this memory
system.mem_ctrls1.bytes_written::ruby.dir_cntrl1     19013952                       # Number of bytes written to this memory
system.mem_ctrls1.bytes_written::total       19013952                       # Number of bytes written to this memory
system.mem_ctrls1.num_reads::ruby.dir_cntrl1       642945                       # Number of read requests responded to by this memory
system.mem_ctrls1.num_reads::total             642945                       # Number of read requests responded to by this memory
system.mem_ctrls1.num_writes::ruby.dir_cntrl1       297093                       # Number of write requests responded to by this memory
system.mem_ctrls1.num_writes::total            297093                       # Number of write requests responded to by this memory
system.mem_ctrls1.bw_read::ruby.dir_cntrl1    322710089                       # Total read bandwidth from this memory (bytes/s)
system.mem_ctrls1.bw_read::total            322710089                       # Total read bandwidth from this memory (bytes/s)
system.mem_ctrls1.bw_write::ruby.dir_cntrl1    149118367                       # Write bandwidth from this memory (bytes/s)
system.mem_ctrls1.bw_write::total           149118367                       # Write bandwidth from this memory (bytes/s)
system.mem_ctrls1.bw_total::ruby.dir_cntrl1    471828457                       # Total bandwidth to/from this memory (bytes/s)
system.mem_ctrls1.bw_total::total           471828457                       # Total bandwidth to/from this memory (bytes/s)
system.mem_ctrls1.readReqs                     642945                       # Number of read requests accepted
system.mem_ctrls1.writeReqs                    297093                       # Number of write requests accepted
system.mem_ctrls1.readBursts                   642945                       # Number of DRAM read bursts, including those serviced by the write queue
system.mem_ctrls1.writeBursts                  297093                       # Number of DRAM write bursts, including those merged in the write queue
system.mem_ctrls1.bytesReadDRAM              41134592                       # Total number of bytes read from DRAM
system.mem_ctrls1.bytesReadWrQ                  13888                       # Total number of bytes read from write queue
system.mem_ctrls1.bytesWritten               19013824                       # Total number of bytes written to DRAM
system.mem_ctrls1.bytesReadSys               41148480                       # Total read bytes from the system interface side
system.mem_ctrls1.bytesWrittenSys            19013952                       # Total written bytes from the system interface side
system.mem_ctrls1.servicedByWrQ                   217                       # Number of DRAM read bursts serviced by the write queue
system.mem_ctrls1.mergedWrBursts                    0                       # Number of DRAM write bursts merged with an existing one
system.mem_ctrls1.neitherReadNorWriteReqs            0                       # Number of requests that are neither read nor write
system.mem_ctrls1.perBankRdBursts::0            40439                       # Per bank write bursts
system.mem_ctrls1.perBankRdBursts::1            40269                       # Per bank write bursts
system.mem_ctrls1.perBankRdBursts::2            39911                       # Per bank write bursts
system.mem_ctrls1.perBankRdBursts::3            40361                       # Per bank write bursts
system.mem_ctrls1.perBankRdBursts::4            39883                       # Per bank write bursts
system.mem_ctrls1.perBankRdBursts::5            39958                       # Per bank write bursts
system.mem_ctrls1.perBankRdBursts::6            41307                       # Per bank write bursts
system.mem_ctrls1.perBankRdBursts::7            40676                       # Per bank write bursts
system.mem_ctrls1.perBankRdBursts::8            39975                       # Per bank write bursts
system.mem_ctrls1.perBankRdBursts::9            39944                       # Per bank write bursts
system.mem_ctrls1.perBankRdBursts::10           39570                       # Per bank write bursts
system.mem_ctrls1.perBankRdBursts::11           40397                       # Per bank write bursts
system.mem_ctrls1.perBankRdBursts::12           39584                       # Per bank write bursts
system.mem_ctrls1.perBankRdBursts::13           39596                       # Per bank write bursts
system.mem_ctrls1.perBankRdBursts::14           40441                       # Per bank write bursts
system.mem_ctrls1.perBankRdBursts::15           40417                       # Per bank write bursts
system.mem_ctrls1.perBankWrBursts::0            18613                       # Per bank write bursts
system.mem_ctrls1.perBankWrBursts::1            18584                       # Per bank write bursts
system.mem_ctrls1.perBankWrBursts::2            18565                       # Per bank write bursts
system.mem_ctrls1.perBankWrBursts::3            18638                       # Per bank write bursts
system.mem_ctrls1.perBankWrBursts::4            18496                       # Per bank write bursts
system.mem_ctrls1.perBankWrBursts::5            18622                       # Per bank write bursts
system.mem_ctrls1.perBankWrBursts::6            18760                       # Per bank write bursts
system.mem_ctrls1.perBankWrBursts::7            18849                       # Per bank write bursts
system.mem_ctrls1.perBankWrBursts::8            18507                       # Per bank write bursts
system.mem_ctrls1.perBankWrBursts::9            18600                       # Per bank write bursts
system.mem_ctrls1.perBankWrBursts::10           18358                       # Per bank write bursts
system.mem_ctrls1.perBankWrBursts::11           18519                       # Per bank write bursts
system.mem_ctrls1.perBankWrBursts::12           18358                       # Per bank write bursts
system.mem_ctrls1.perBankWrBursts::13           18445                       # Per bank write bursts
system.mem_ctrls1.perBankWrBursts::14           18550                       # Per bank write bursts
system.mem_ctrls1.perBankWrBursts::15           18627                       # Per bank write bursts
system.mem_ctrls1.numRdRetry                      915                       # Number of times read queue was full causing retry
system.mem_ctrls1.numWrRetry                     5495                       # Number of times write queue was full causing retry
system.mem_ctrls1.totGap                 127508455000                       # Total gap between requests
system.mem_ctrls1.readPktSize::0                    0                       # Read request sizes (log2)
system.mem_ctrls1.readPktSize::1                    0                       # Read request sizes (log2)
system.mem_ctrls1.readPktSize::2                    0                       # Read request sizes (log2)
system.mem_ctrls1.readPktSize::3                    0                       # Read request sizes (log2)
system.mem_ctrls1.readPktSize::4                    0                       # Read request sizes (log2)
system.mem_ctrls1.readPktSize::5                    0                       # Read request sizes (log2)
system.mem_ctrls1.readPktSize::6               642945                       # Read request sizes (log2)
system.mem_ctrls1.writePktSize::0                   0                       # Write request sizes (log2)
system.mem_ctrls1.writePktSize::1                   0                       # Write request sizes (log2)
system.mem_ctrls1.writePktSize::2                   0                       # Write request sizes (log2)
system.mem_ctrls1.writePktSize::3                   0                       # Write request sizes (log2)
system.mem_ctrls1.writePktSize::4                   0                       # Write request sizes (log2)
system.mem_ctrls1.writePktSize::5                   0                       # Write request sizes (log2)
system.mem_ctrls1.writePktSize::6              297093                       # Write request sizes (log2)
system.mem_ctrls1.rdQLenPdf::0                 239145                       # What read queue length does an incoming req see
system.mem_ctrls1.rdQLenPdf::1                  84036                       # What read queue length does an incoming req see
system.mem_ctrls1.rdQLenPdf::2                  68650                       # What read queue length does an incoming req see
system.mem_ctrls1.rdQLenPdf::3                  58184                       # What read queue length does an incoming req see
system.mem_ctrls1.rdQLenPdf::4                  46978                       # What read queue length does an incoming req see
system.mem_ctrls1.rdQLenPdf::5                  36948                       # What read queue length does an incoming req see
system.mem_ctrls1.rdQLenPdf::6                  28000                       # What read queue length does an incoming req see
system.mem_ctrls1.rdQLenPdf::7                  20151                       # What read queue length does an incoming req see
system.mem_ctrls1.rdQLenPdf::8                  13656                       # What read queue length does an incoming req see
system.mem_ctrls1.rdQLenPdf::9                  10380                       # What read queue length does an incoming req see
system.mem_ctrls1.rdQLenPdf::10                  7773                       # What read queue length does an incoming req see
system.mem_ctrls1.rdQLenPdf::11                  5894                       # What read queue length does an incoming req see
system.mem_ctrls1.rdQLenPdf::12                  4530                       # What read queue length does an incoming req see
system.mem_ctrls1.rdQLenPdf::13                  3483                       # What read queue length does an incoming req see
system.mem_ctrls1.rdQLenPdf::14                  2715                       # What read queue length does an incoming req see
system.mem_ctrls1.rdQLenPdf::15                  2125                       # What read queue length does an incoming req see
system.mem_ctrls1.rdQLenPdf::16                  1661                       # What read queue length does an incoming req see
system.mem_ctrls1.rdQLenPdf::17                  1326                       # What read queue length does an incoming req see
system.mem_ctrls1.rdQLenPdf::18                  1100                       # What read queue length does an incoming req see
system.mem_ctrls1.rdQLenPdf::19                   918                       # What read queue length does an incoming req see
system.mem_ctrls1.rdQLenPdf::20                   748                       # What read queue length does an incoming req see
system.mem_ctrls1.rdQLenPdf::21                   589                       # What read queue length does an incoming req see
system.mem_ctrls1.rdQLenPdf::22                   480                       # What read queue length does an incoming req see
system.mem_ctrls1.rdQLenPdf::23                   422                       # What read queue length does an incoming req see
system.mem_ctrls1.rdQLenPdf::24                   367                       # What read queue length does an incoming req see
system.mem_ctrls1.rdQLenPdf::25                   297                       # What read queue length does an incoming req see
system.mem_ctrls1.rdQLenPdf::26                   271                       # What read queue length does an incoming req see
system.mem_ctrls1.rdQLenPdf::27                   234                       # What read queue length does an incoming req see
system.mem_ctrls1.rdQLenPdf::28                   218                       # What read queue length does an incoming req see
system.mem_ctrls1.rdQLenPdf::29                   183                       # What read queue length does an incoming req see
system.mem_ctrls1.rdQLenPdf::30                   174                       # What read queue length does an incoming req see
system.mem_ctrls1.rdQLenPdf::31                  1092                       # What read queue length does an incoming req see
system.mem_ctrls1.wrQLenPdf::0                  48221                       # What write queue length does an incoming req see
system.mem_ctrls1.wrQLenPdf::1                  52625                       # What write queue length does an incoming req see
system.mem_ctrls1.wrQLenPdf::2                  54807                       # What write queue length does an incoming req see
system.mem_ctrls1.wrQLenPdf::3                  56468                       # What write queue length does an incoming req see
system.mem_ctrls1.wrQLenPdf::4                  57423                       # What write queue length does an incoming req see
system.mem_ctrls1.wrQLenPdf::5                  10653                       # What write queue length does an incoming req see
system.mem_ctrls1.wrQLenPdf::6                   6982                       # What write queue length does an incoming req see
system.mem_ctrls1.wrQLenPdf::7                   9914                       # What write queue length does an incoming req see
system.mem_ctrls1.bytesPerActivate::samples       266670                       # Bytes accessed per row activation
system.mem_ctrls1.bytesPerActivate::mean   225.552541                       # Bytes accessed per row activation
system.mem_ctrls1.bytesPerActivate::gmean   173.487975                       # Bytes accessed per row activation
system.mem_ctrls1.bytesPerActivate::stdev   162.534149                       # Bytes accessed per row activation
system.mem_ctrls1.bytesPerActivate::0-127        72890     27.33%     27.33% # Bytes accessed per row activation
system.mem_ctrls1.bytesPerActivate::128-255        77454     29.04%     56.38% # Bytes accessed per row activation
system.mem_ctrls1.bytesPerActivate::256-383        72670     27.25%     83.63% # Bytes accessed per row activation
system.mem_ctrls1.bytesPerActivate::384-511        19969      7.49%     91.12% # Bytes accessed per row activation
system.mem_ctrls1.bytesPerActivate::512-639        17469      6.55%     97.67% # Bytes accessed per row activation
system.mem_ctrls1.bytesPerActivate::640-767         2812      1.05%     98.72% # Bytes accessed per row activation
system.mem_ctrls1.bytesPerActivate::768-895         1725      0.65%     99.37% # Bytes accessed per row activation
system.mem_ctrls1.bytesPerActivate::896-1023         1175      0.44%     99.81% # Bytes accessed per row activation
system.mem_ctrls1.bytesPerActivate::1024-1151          506      0.19%    100.00% # Bytes accessed per row activation
system.mem_ctrls1.bytesPerActivate::total       266670                       # Bytes accessed per row activation
system.mem_ctrls1.rdPerTurnAround::samples        48860                       # Reads before turning the bus around for writes
system.mem_ctrls1.rdPerTurnAround::mean     13.154482                       # Reads before turning the bus around for writes
system.mem_ctrls1.rdPerTurnAround::stdev    37.830031                       # Reads before turning the bus around for writes
system.mem_ctrls1.rdPerTurnAround::0-127        48436     99.13%     99.13% # Reads before turning the bus around for writes
system.mem_ctrls1.rdPerTurnAround::128-255          272      0.56%     99.69% # Reads before turning the bus around for writes
system.mem_ctrls1.rdPerTurnAround::256-383           66      0.14%     99.82% # Reads before turning the bus around for writes
system.mem_ctrls1.rdPerTurnAround::384-511           37      0.08%     99.90% # Reads before turning the bus around for writes
system.mem_ctrls1.rdPerTurnAround::512-639           14      0.03%     99.93% # Reads before turning the bus around for writes
system.mem_ctrls1.rdPerTurnAround::640-767           11      0.02%     99.95% # Reads before turning the bus around for writes
system.mem_ctrls1.rdPerTurnAround::768-895            7      0.01%     99.97% # Reads before turning the bus around for writes
system.mem_ctrls1.rdPerTurnAround::896-1023            8      0.02%     99.98% # Reads before turning the bus around for writes
system.mem_ctrls1.rdPerTurnAround::1024-1151            4      0.01%     99.99% # Reads before turning the bus around for writes
system.mem_ctrls1.rdPerTurnAround::1152-1279            3      0.01%    100.00% # Reads before turning the bus around for writes
system.mem_ctrls1.rdPerTurnAround::1536-1663            1      0.00%    100.00% # Reads before turning the bus around for writes
system.mem_ctrls1.rdPerTurnAround::2816-2943            1      0.00%    100.00% # Reads before turning the bus around for writes
system.mem_ctrls1.rdPerTurnAround::total        48860                       # Reads before turning the bus around for writes
system.mem_ctrls1.wrPerTurnAround::samples        48859                       # Writes before turning the bus around for reads
system.mem_ctrls1.wrPerTurnAround::mean      6.080517                       # Writes before turning the bus around for reads
system.mem_ctrls1.wrPerTurnAround::gmean     5.800199                       # Writes before turning the bus around for reads
system.mem_ctrls1.wrPerTurnAround::stdev     2.275056                       # Writes before turning the bus around for reads
system.mem_ctrls1.wrPerTurnAround::4-7          40832     83.57%     83.57% # Writes before turning the bus around for reads
system.mem_ctrls1.wrPerTurnAround::8-11          5796     11.86%     95.43% # Writes before turning the bus around for reads
system.mem_ctrls1.wrPerTurnAround::12-15         1381      2.83%     98.26% # Writes before turning the bus around for reads
system.mem_ctrls1.wrPerTurnAround::16-19          850      1.74%    100.00% # Writes before turning the bus around for reads
system.mem_ctrls1.wrPerTurnAround::total        48859                       # Writes before turning the bus around for reads
system.mem_ctrls1.totQLat                 27823178032                       # Total ticks spent queuing
system.mem_ctrls1.totMemAccLat            39874328032                       # Total ticks spent from burst creation until serviced by the DRAM
system.mem_ctrls1.totBusLat                3213640000                       # Total ticks spent in databus transfers
system.mem_ctrls1.avgQLat                    43289.20                       # Average queueing delay per DRAM burst
system.mem_ctrls1.avgBusLat                   5000.00                       # Average bus latency per DRAM burst
system.mem_ctrls1.avgMemAccLat               62039.20                       # Average memory access latency per DRAM burst
system.mem_ctrls1.avgRdBW                      322.60                       # Average DRAM read bandwidth in MiByte/s
system.mem_ctrls1.avgWrBW                      149.12                       # Average achieved write bandwidth in MiByte/s
system.mem_ctrls1.avgRdBWSys                   322.71                       # Average system read bandwidth in MiByte/s
system.mem_ctrls1.avgWrBWSys                   149.12                       # Average system write bandwidth in MiByte/s
system.mem_ctrls1.peakBW                     12800.00                       # Theoretical peak bandwidth in MiByte/s
system.mem_ctrls1.busUtil                        3.69                       # Data bus utilization in percentage
system.mem_ctrls1.busUtilRead                    2.52                       # Data bus utilization in percentage for reads
system.mem_ctrls1.busUtilWrite                   1.16                       # Data bus utilization in percentage for writes
system.mem_ctrls1.avgRdQLen                      1.46                       # Average read queue length when enqueuing
system.mem_ctrls1.avgWrQLen                      3.04                       # Average write queue length when enqueuing
system.mem_ctrls1.readRowHits                  490496                       # Number of row buffer hits during reads
system.mem_ctrls1.writeRowHits                 182650                       # Number of row buffer hits during writes
system.mem_ctrls1.readRowHitRate                76.31                       # Row buffer hit rate for reads
system.mem_ctrls1.writeRowHitRate               61.48                       # Row buffer hit rate for writes
system.mem_ctrls1.avgGap                    135641.81                       # Average gap between requests
system.mem_ctrls1.pageHitRate                   71.62                       # Row buffer hit rate, read and write combined
system.mem_ctrls1.memoryStateTime::IDLE   20783473500                       # Time in different power states
system.mem_ctrls1.memoryStateTime::REF     4257760000                       # Time in different power states
system.mem_ctrls1.memoryStateTime::PRE_PDN            0                       # Time in different power states
system.mem_ctrls1.memoryStateTime::ACT   102466692500                       # Time in different power states
system.mem_ctrls1.memoryStateTime::ACT_PDN            0                       # Time in different power states
system.mem_ctrls1.actEnergy::0             1015943040                       # Energy for activate commands per rank (pJ)
system.mem_ctrls1.actEnergy::1             1000059480                       # Energy for activate commands per rank (pJ)
system.mem_ctrls1.preEnergy::0              554334000                       # Energy for precharge commands per rank (pJ)
system.mem_ctrls1.preEnergy::1              545667375                       # Energy for precharge commands per rank (pJ)
system.mem_ctrls1.readEnergy::0            2517847800                       # Energy for read commands per rank (pJ)
system.mem_ctrls1.readEnergy::1            2495352600                       # Energy for read commands per rank (pJ)
system.mem_ctrls1.writeEnergy::0            966330000                       # Energy for write commands per rank (pJ)
system.mem_ctrls1.writeEnergy::1            958800240                       # Energy for write commands per rank (pJ)
system.mem_ctrls1.refreshEnergy::0         8328178560                       # Energy for refresh commands per rank (pJ)
system.mem_ctrls1.refreshEnergy::1         8328178560                       # Energy for refresh commands per rank (pJ)
system.mem_ctrls1.actBackEnergy::0        53374970430                       # Energy for active background per rank (pJ)
system.mem_ctrls1.actBackEnergy::1        53147522475                       # Energy for active background per rank (pJ)
system.mem_ctrls1.preBackEnergy::0        29684598000                       # Energy for precharge background per rank (pJ)
system.mem_ctrls1.preBackEnergy::1        29884113750                       # Energy for precharge background per rank (pJ)
system.mem_ctrls1.totalEnergy::0          96442201830                       # Total energy per rank (pJ)
system.mem_ctrls1.totalEnergy::1          96359694480                       # Total energy per rank (pJ)
system.mem_ctrls1.averagePower::0          756.362487                       # Core power per rank (mW)
system.mem_ctrls1.averagePower::1          755.715411                       # Core power per rank (mW)
system.mem_ctrls2.bytes_read::ruby.dir_cntrl2     41060736                       # Number of bytes read from this memory
system.mem_ctrls2.bytes_read::total          41060736                       # Number of bytes read from this memory
system.mem_ctrls2.bytes_written::ruby.dir_cntrl2     19000768                       # Number of bytes written to this memory
system.mem_ctrls2.bytes_written::total       19000768                       # Number of bytes written to this memory
system.mem_ctrls2.num_reads::ruby.dir_cntrl2       641574                       # Number of read requests responded to by this memory
system.mem_ctrls2.num_reads::total             641574                       # Number of read requests responded to by this memory
system.mem_ctrls2.num_writes::ruby.dir_cntrl2       296887                       # Number of write requests responded to by this memory
system.mem_ctrls2.num_writes::total            296887                       # Number of write requests responded to by this memory
system.mem_ctrls2.bw_read::ruby.dir_cntrl2    322021950                       # Total read bandwidth from this memory (bytes/s)
system.mem_ctrls2.bw_read::total            322021950                       # Total read bandwidth from this memory (bytes/s)
system.mem_ctrls2.bw_write::ruby.dir_cntrl2    149014971                       # Write bandwidth from this memory (bytes/s)
system.mem_ctrls2.bw_write::total           149014971                       # Write bandwidth from this memory (bytes/s)
system.mem_ctrls2.bw_total::ruby.dir_cntrl2    471036921                       # Total bandwidth to/from this memory (bytes/s)
system.mem_ctrls2.bw_total::total           471036921                       # Total bandwidth to/from this memory (bytes/s)
system.mem_ctrls2.readReqs                     641574                       # Number of read requests accepted
system.mem_ctrls2.writeReqs                    296887                       # Number of write requests accepted
system.mem_ctrls2.readBursts                   641574                       # Number of DRAM read bursts, including those serviced by the write queue
system.mem_ctrls2.writeBursts                  296887                       # Number of DRAM write bursts, including those merged in the write queue
system.mem_ctrls2.bytesReadDRAM              41050432                       # Total number of bytes read from DRAM
system.mem_ctrls2.bytesReadWrQ                  10304                       # Total number of bytes read from write queue
system.mem_ctrls2.bytesWritten               19000768                       # Total number of bytes written to DRAM
system.mem_ctrls2.bytesReadSys               41060736                       # Total read bytes from the system interface side
system.mem_ctrls2.bytesWrittenSys            19000768                       # Total written bytes from the system interface side
system.mem_ctrls2.servicedByWrQ                   161                       # Number of DRAM read bursts serviced by the write queue
system.mem_ctrls2.mergedWrBursts                    0                       # Number of DRAM write bursts merged with an existing one
system.mem_ctrls2.neitherReadNorWriteReqs            0                       # Number of requests that are neither read nor write
system.mem_ctrls2.perBankRdBursts::0            40333                       # Per bank write bursts
system.mem_ctrls2.perBankRdBursts::1            40148                       # Per bank write bursts
system.mem_ctrls2.perBankRdBursts::2            40066                       # Per bank write bursts
system.mem_ctrls2.perBankRdBursts::3            40282                       # Per bank write bursts
system.mem_ctrls2.perBankRdBursts::4            39817                       # Per bank write bursts
system.mem_ctrls2.perBankRdBursts::5            39832                       # Per bank write bursts
system.mem_ctrls2.perBankRdBursts::6            41106                       # Per bank write bursts
system.mem_ctrls2.perBankRdBursts::7            40458                       # Per bank write bursts
system.mem_ctrls2.perBankRdBursts::8            39878                       # Per bank write bursts
system.mem_ctrls2.perBankRdBursts::9            39764                       # Per bank write bursts
system.mem_ctrls2.perBankRdBursts::10           39792                       # Per bank write bursts
system.mem_ctrls2.perBankRdBursts::11           40275                       # Per bank write bursts
system.mem_ctrls2.perBankRdBursts::12           39518                       # Per bank write bursts
system.mem_ctrls2.perBankRdBursts::13           39463                       # Per bank write bursts
system.mem_ctrls2.perBankRdBursts::14           40412                       # Per bank write bursts
system.mem_ctrls2.perBankRdBursts::15           40269                       # Per bank write bursts
system.mem_ctrls2.perBankWrBursts::0            18622                       # Per bank write bursts
system.mem_ctrls2.perBankWrBursts::1            18517                       # Per bank write bursts
system.mem_ctrls2.perBankWrBursts::2            18628                       # Per bank write bursts
system.mem_ctrls2.perBankWrBursts::3            18590                       # Per bank write bursts
system.mem_ctrls2.perBankWrBursts::4            18506                       # Per bank write bursts
system.mem_ctrls2.perBankWrBursts::5            18560                       # Per bank write bursts
system.mem_ctrls2.perBankWrBursts::6            18731                       # Per bank write bursts
system.mem_ctrls2.perBankWrBursts::7            18790                       # Per bank write bursts
system.mem_ctrls2.perBankWrBursts::8            18527                       # Per bank write bursts
system.mem_ctrls2.perBankWrBursts::9            18551                       # Per bank write bursts
system.mem_ctrls2.perBankWrBursts::10           18445                       # Per bank write bursts
system.mem_ctrls2.perBankWrBursts::11           18495                       # Per bank write bursts
system.mem_ctrls2.perBankWrBursts::12           18376                       # Per bank write bursts
system.mem_ctrls2.perBankWrBursts::13           18384                       # Per bank write bursts
system.mem_ctrls2.perBankWrBursts::14           18574                       # Per bank write bursts
system.mem_ctrls2.perBankWrBursts::15           18591                       # Per bank write bursts
system.mem_ctrls2.numRdRetry                     1207                       # Number of times read queue was full causing retry
system.mem_ctrls2.numWrRetry                     5791                       # Number of times write queue was full causing retry
system.mem_ctrls2.totGap                 127509070500                       # Total gap between requests
system.mem_ctrls2.readPktSize::0                    0                       # Read request sizes (log2)
system.mem_ctrls2.readPktSize::1                    0                       # Read request sizes (log2)
system.mem_ctrls2.readPktSize::2                    0                       # Read request sizes (log2)
system.mem_ctrls2.readPktSize::3                    0                       # Read request sizes (log2)
system.mem_ctrls2.readPktSize::4                    0                       # Read request sizes (log2)
system.mem_ctrls2.readPktSize::5                    0                       # Read request sizes (log2)
system.mem_ctrls2.readPktSize::6               641574                       # Read request sizes (log2)
system.mem_ctrls2.writePktSize::0                   0                       # Write request sizes (log2)
system.mem_ctrls2.writePktSize::1                   0                       # Write request sizes (log2)
system.mem_ctrls2.writePktSize::2                   0                       # Write request sizes (log2)
system.mem_ctrls2.writePktSize::3                   0                       # Write request sizes (log2)
system.mem_ctrls2.writePktSize::4                   0                       # Write request sizes (log2)
system.mem_ctrls2.writePktSize::5                   0                       # Write request sizes (log2)
system.mem_ctrls2.writePktSize::6              296887                       # Write request sizes (log2)
system.mem_ctrls2.rdQLenPdf::0                 240135                       # What read queue length does an incoming req see
system.mem_ctrls2.rdQLenPdf::1                  84032                       # What read queue length does an incoming req see
system.mem_ctrls2.rdQLenPdf::2                  68783                       # What read queue length does an incoming req see
system.mem_ctrls2.rdQLenPdf::3                  57274                       # What read queue length does an incoming req see
system.mem_ctrls2.rdQLenPdf::4                  47048                       # What read queue length does an incoming req see
system.mem_ctrls2.rdQLenPdf::5                  36493                       # What read queue length does an incoming req see
system.mem_ctrls2.rdQLenPdf::6                  28050                       # What read queue length does an incoming req see
system.mem_ctrls2.rdQLenPdf::7                  20108                       # What read queue length does an incoming req see
system.mem_ctrls2.rdQLenPdf::8                  13446                       # What read queue length does an incoming req see
system.mem_ctrls2.rdQLenPdf::9                  10157                       # What read queue length does an incoming req see
system.mem_ctrls2.rdQLenPdf::10                  7617                       # What read queue length does an incoming req see
system.mem_ctrls2.rdQLenPdf::11                  5782                       # What read queue length does an incoming req see
system.mem_ctrls2.rdQLenPdf::12                  4437                       # What read queue length does an incoming req see
system.mem_ctrls2.rdQLenPdf::13                  3378                       # What read queue length does an incoming req see
system.mem_ctrls2.rdQLenPdf::14                  2575                       # What read queue length does an incoming req see
system.mem_ctrls2.rdQLenPdf::15                  2013                       # What read queue length does an incoming req see
system.mem_ctrls2.rdQLenPdf::16                  1617                       # What read queue length does an incoming req see
system.mem_ctrls2.rdQLenPdf::17                  1276                       # What read queue length does an incoming req see
system.mem_ctrls2.rdQLenPdf::18                  1004                       # What read queue length does an incoming req see
system.mem_ctrls2.rdQLenPdf::19                   859                       # What read queue length does an incoming req see
system.mem_ctrls2.rdQLenPdf::20                   740                       # What read queue length does an incoming req see
system.mem_ctrls2.rdQLenPdf::21                   604                       # What read queue length does an incoming req see
system.mem_ctrls2.rdQLenPdf::22                   494                       # What read queue length does an incoming req see
system.mem_ctrls2.rdQLenPdf::23                   412                       # What read queue length does an incoming req see
system.mem_ctrls2.rdQLenPdf::24                   368                       # What read queue length does an incoming req see
system.mem_ctrls2.rdQLenPdf::25                   321                       # What read queue length does an incoming req see
system.mem_ctrls2.rdQLenPdf::26                   275                       # What read queue length does an incoming req see
system.mem_ctrls2.rdQLenPdf::27                   217                       # What read queue length does an incoming req see
system.mem_ctrls2.rdQLenPdf::28                   192                       # What read queue length does an incoming req see
system.mem_ctrls2.rdQLenPdf::29                   175                       # What read queue length does an incoming req see
system.mem_ctrls2.rdQLenPdf::30                   145                       # What read queue length does an incoming req see
system.mem_ctrls2.rdQLenPdf::31                  1386                       # What read queue length does an incoming req see
system.mem_ctrls2.wrQLenPdf::0                  48219                       # What write queue length does an incoming req see
system.mem_ctrls2.wrQLenPdf::1                  52571                       # What write queue length does an incoming req see
system.mem_ctrls2.wrQLenPdf::2                  54368                       # What write queue length does an incoming req see
system.mem_ctrls2.wrQLenPdf::3                  56104                       # What write queue length does an incoming req see
system.mem_ctrls2.wrQLenPdf::4                  56706                       # What write queue length does an incoming req see
system.mem_ctrls2.wrQLenPdf::5                  10847                       # What write queue length does an incoming req see
system.mem_ctrls2.wrQLenPdf::6                   7465                       # What write queue length does an incoming req see
system.mem_ctrls2.wrQLenPdf::7                  10607                       # What write queue length does an incoming req see
system.mem_ctrls2.bytesPerActivate::samples       265724                       # Bytes accessed per row activation
system.mem_ctrls2.bytesPerActivate::mean   225.989433                       # Bytes accessed per row activation
system.mem_ctrls2.bytesPerActivate::gmean   174.000081                       # Bytes accessed per row activation
system.mem_ctrls2.bytesPerActivate::stdev   162.307370                       # Bytes accessed per row activation
system.mem_ctrls2.bytesPerActivate::0-127        72223     27.18%     27.18% # Bytes accessed per row activation
system.mem_ctrls2.bytesPerActivate::128-255        77152     29.03%     56.21% # Bytes accessed per row activation
system.mem_ctrls2.bytesPerActivate::256-383        72780     27.39%     83.60% # Bytes accessed per row activation
system.mem_ctrls2.bytesPerActivate::384-511        19896      7.49%     91.09% # Bytes accessed per row activation
system.mem_ctrls2.bytesPerActivate::512-639        17573      6.61%     97.70% # Bytes accessed per row activation
system.mem_ctrls2.bytesPerActivate::640-767         2756      1.04%     98.74% # Bytes accessed per row activation
system.mem_ctrls2.bytesPerActivate::768-895         1638      0.62%     99.36% # Bytes accessed per row activation
system.mem_ctrls2.bytesPerActivate::896-1023         1216      0.46%     99.82% # Bytes accessed per row activation
system.mem_ctrls2.bytesPerActivate::1024-1151          490      0.18%    100.00% # Bytes accessed per row activation
system.mem_ctrls2.bytesPerActivate::total       265724                       # Bytes accessed per row activation
system.mem_ctrls2.rdPerTurnAround::samples        48863                       # Reads before turning the bus around for writes
system.mem_ctrls2.rdPerTurnAround::mean     13.126763                       # Reads before turning the bus around for writes
system.mem_ctrls2.rdPerTurnAround::stdev    38.015831                       # Reads before turning the bus around for writes
system.mem_ctrls2.rdPerTurnAround::0-127        48424     99.10%     99.10% # Reads before turning the bus around for writes
system.mem_ctrls2.rdPerTurnAround::128-255          282      0.58%     99.68% # Reads before turning the bus around for writes
system.mem_ctrls2.rdPerTurnAround::256-383           72      0.15%     99.83% # Reads before turning the bus around for writes
system.mem_ctrls2.rdPerTurnAround::384-511           37      0.08%     99.90% # Reads before turning the bus around for writes
system.mem_ctrls2.rdPerTurnAround::512-639           17      0.03%     99.94% # Reads before turning the bus around for writes
system.mem_ctrls2.rdPerTurnAround::640-767            9      0.02%     99.95% # Reads before turning the bus around for writes
system.mem_ctrls2.rdPerTurnAround::768-895            8      0.02%     99.97% # Reads before turning the bus around for writes
system.mem_ctrls2.rdPerTurnAround::896-1023            5      0.01%     99.98% # Reads before turning the bus around for writes
system.mem_ctrls2.rdPerTurnAround::1024-1151            2      0.00%     99.99% # Reads before turning the bus around for writes
system.mem_ctrls2.rdPerTurnAround::1152-1279            3      0.01%     99.99% # Reads before turning the bus around for writes
system.mem_ctrls2.rdPerTurnAround::1280-1407            1      0.00%     99.99% # Reads before turning the bus around for writes
system.mem_ctrls2.rdPerTurnAround::1536-1663            1      0.00%    100.00% # Reads before turning the bus around for writes
system.mem_ctrls2.rdPerTurnAround::1664-1791            1      0.00%    100.00% # Reads before turning the bus around for writes
system.mem_ctrls2.rdPerTurnAround::2816-2943            1      0.00%    100.00% # Reads before turning the bus around for writes
system.mem_ctrls2.rdPerTurnAround::total        48863                       # Reads before turning the bus around for writes
system.mem_ctrls2.wrPerTurnAround::samples        48863                       # Writes before turning the bus around for reads
system.mem_ctrls2.wrPerTurnAround::mean      6.075906                       # Writes before turning the bus around for reads
system.mem_ctrls2.wrPerTurnAround::gmean     5.794001                       # Writes before turning the bus around for reads
system.mem_ctrls2.wrPerTurnAround::stdev     2.285994                       # Writes before turning the bus around for reads
system.mem_ctrls2.wrPerTurnAround::4-7          40957     83.82%     83.82% # Writes before turning the bus around for reads
system.mem_ctrls2.wrPerTurnAround::8-11          5627     11.52%     95.34% # Writes before turning the bus around for reads
system.mem_ctrls2.wrPerTurnAround::12-15         1427      2.92%     98.26% # Writes before turning the bus around for reads
system.mem_ctrls2.wrPerTurnAround::16-19          852      1.74%    100.00% # Writes before turning the bus around for reads
system.mem_ctrls2.wrPerTurnAround::total        48863                       # Writes before turning the bus around for reads
system.mem_ctrls2.totQLat                 27746472439                       # Total ticks spent queuing
system.mem_ctrls2.totMemAccLat            39772966189                       # Total ticks spent from burst creation until serviced by the DRAM
system.mem_ctrls2.totBusLat                3207065000                       # Total ticks spent in databus transfers
system.mem_ctrls2.avgQLat                    43258.36                       # Average queueing delay per DRAM burst
system.mem_ctrls2.avgBusLat                   5000.00                       # Average bus latency per DRAM burst
system.mem_ctrls2.avgMemAccLat               62008.36                       # Average memory access latency per DRAM burst
system.mem_ctrls2.avgRdBW                      321.94                       # Average DRAM read bandwidth in MiByte/s
system.mem_ctrls2.avgWrBW                      149.01                       # Average achieved write bandwidth in MiByte/s
system.mem_ctrls2.avgRdBWSys                   322.02                       # Average system read bandwidth in MiByte/s
system.mem_ctrls2.avgWrBWSys                   149.01                       # Average system write bandwidth in MiByte/s
system.mem_ctrls2.peakBW                     12800.00                       # Theoretical peak bandwidth in MiByte/s
system.mem_ctrls2.busUtil                        3.68                       # Data bus utilization in percentage
system.mem_ctrls2.busUtilRead                    2.52                       # Data bus utilization in percentage for reads
system.mem_ctrls2.busUtilWrite                   1.16                       # Data bus utilization in percentage for writes
system.mem_ctrls2.avgRdQLen                      1.46                       # Average read queue length when enqueuing
system.mem_ctrls2.avgWrQLen                      3.04                       # Average write queue length when enqueuing
system.mem_ctrls2.readRowHits                  489575                       # Number of row buffer hits during reads
system.mem_ctrls2.writeRowHits                 182996                       # Number of row buffer hits during writes
system.mem_ctrls2.readRowHitRate                76.33                       # Row buffer hit rate for reads
system.mem_ctrls2.writeRowHitRate               61.64                       # Row buffer hit rate for writes
system.mem_ctrls2.avgGap                    135870.40                       # Average gap between requests
system.mem_ctrls2.pageHitRate                   71.68                       # Row buffer hit rate, read and write combined
system.mem_ctrls2.memoryStateTime::IDLE   20912663250                       # Time in different power states
system.mem_ctrls2.memoryStateTime::REF     4257760000                       # Time in different power states
system.mem_ctrls2.memoryStateTime::PRE_PDN            0                       # Time in different power states
system.mem_ctrls2.memoryStateTime::ACT   102337846250                       # Time in different power states
system.mem_ctrls2.memoryStateTime::ACT_PDN            0                       # Time in different power states
system.mem_ctrls2.actEnergy::0             1011074400                       # Energy for activate commands per rank (pJ)
system.mem_ctrls2.actEnergy::1              997791480                       # Energy for activate commands per rank (pJ)
system.mem_ctrls2.preEnergy::0              551677500                       # Energy for precharge commands per rank (pJ)
system.mem_ctrls2.preEnergy::1              544429875                       # Energy for precharge commands per rank (pJ)
system.mem_ctrls2.readEnergy::0            2511919800                       # Energy for read commands per rank (pJ)
system.mem_ctrls2.readEnergy::1            2491070400                       # Energy for read commands per rank (pJ)
system.mem_ctrls2.writeEnergy::0            965150640                       # Energy for write commands per rank (pJ)
system.mem_ctrls2.writeEnergy::1            958644720                       # Energy for write commands per rank (pJ)
system.mem_ctrls2.refreshEnergy::0         8328178560                       # Energy for refresh commands per rank (pJ)
system.mem_ctrls2.refreshEnergy::1         8328178560                       # Energy for refresh commands per rank (pJ)
system.mem_ctrls2.actBackEnergy::0        53611884945                       # Energy for active background per rank (pJ)
system.mem_ctrls2.actBackEnergy::1        53100075960                       # Energy for active background per rank (pJ)
system.mem_ctrls2.preBackEnergy::0        29476784250                       # Energy for precharge background per rank (pJ)
system.mem_ctrls2.preBackEnergy::1        29925739500                       # Energy for precharge background per rank (pJ)
system.mem_ctrls2.totalEnergy::0          96456670095                       # Total energy per rank (pJ)
system.mem_ctrls2.totalEnergy::1          96345930495                       # Total energy per rank (pJ)
system.mem_ctrls2.averagePower::0          756.475897                       # Core power per rank (mW)
system.mem_ctrls2.averagePower::1          755.607405                       # Core power per rank (mW)
system.mem_ctrls3.bytes_read::ruby.dir_cntrl3     41112768                       # Number of bytes read from this memory
system.mem_ctrls3.bytes_read::total          41112768                       # Number of bytes read from this memory
system.mem_ctrls3.bytes_written::ruby.dir_cntrl3     19007616                       # Number of bytes written to this memory
system.mem_ctrls3.bytes_written::total       19007616                       # Number of bytes written to this memory
system.mem_ctrls3.num_reads::ruby.dir_cntrl3       642387                       # Number of read requests responded to by this memory
system.mem_ctrls3.num_reads::total             642387                       # Number of read requests responded to by this memory
system.mem_ctrls3.num_writes::ruby.dir_cntrl3       296994                       # Number of write requests responded to by this memory
system.mem_ctrls3.num_writes::total            296994                       # Number of write requests responded to by this memory
system.mem_ctrls3.bw_read::ruby.dir_cntrl3    322430015                       # Total read bandwidth from this memory (bytes/s)
system.mem_ctrls3.bw_read::total            322430015                       # Total read bandwidth from this memory (bytes/s)
system.mem_ctrls3.bw_write::ruby.dir_cntrl3    149068677                       # Write bandwidth from this memory (bytes/s)
system.mem_ctrls3.bw_write::total           149068677                       # Write bandwidth from this memory (bytes/s)
system.mem_ctrls3.bw_total::ruby.dir_cntrl3    471498692                       # Total bandwidth to/from this memory (bytes/s)
system.mem_ctrls3.bw_total::total           471498692                       # Total bandwidth to/from this memory (bytes/s)
system.mem_ctrls3.readReqs                     642387                       # Number of read requests accepted
system.mem_ctrls3.writeReqs                    296994                       # Number of write requests accepted
system.mem_ctrls3.readBursts                   642387                       # Number of DRAM read bursts, including those serviced by the write queue
system.mem_ctrls3.writeBursts                  296994                       # Number of DRAM write bursts, including those merged in the write queue
system.mem_ctrls3.bytesReadDRAM              41100672                       # Total number of bytes read from DRAM
system.mem_ctrls3.bytesReadWrQ                  12096                       # Total number of bytes read from write queue
system.mem_ctrls3.bytesWritten               19007360                       # Total number of bytes written to DRAM
system.mem_ctrls3.bytesReadSys               41112768                       # Total read bytes from the system interface side
system.mem_ctrls3.bytesWrittenSys            19007616                       # Total written bytes from the system interface side
system.mem_ctrls3.servicedByWrQ                   189                       # Number of DRAM read bursts serviced by the write queue
system.mem_ctrls3.mergedWrBursts                    0                       # Number of DRAM write bursts merged with an existing one
system.mem_ctrls3.neitherReadNorWriteReqs            0                       # Number of requests that are neither read nor write
system.mem_ctrls3.perBankRdBursts::0            40288                       # Per bank write bursts
system.mem_ctrls3.perBankRdBursts::1            40101                       # Per bank write bursts
system.mem_ctrls3.perBankRdBursts::2            40019                       # Per bank write bursts
system.mem_ctrls3.perBankRdBursts::3            40376                       # Per bank write bursts
system.mem_ctrls3.perBankRdBursts::4            39807                       # Per bank write bursts
system.mem_ctrls3.perBankRdBursts::5            40043                       # Per bank write bursts
system.mem_ctrls3.perBankRdBursts::6            41074                       # Per bank write bursts
system.mem_ctrls3.perBankRdBursts::7            40633                       # Per bank write bursts
system.mem_ctrls3.perBankRdBursts::8            39836                       # Per bank write bursts
system.mem_ctrls3.perBankRdBursts::9            39621                       # Per bank write bursts
system.mem_ctrls3.perBankRdBursts::10           39873                       # Per bank write bursts
system.mem_ctrls3.perBankRdBursts::11           40266                       # Per bank write bursts
system.mem_ctrls3.perBankRdBursts::12           39591                       # Per bank write bursts
system.mem_ctrls3.perBankRdBursts::13           39645                       # Per bank write bursts
system.mem_ctrls3.perBankRdBursts::14           40467                       # Per bank write bursts
system.mem_ctrls3.perBankRdBursts::15           40558                       # Per bank write bursts
system.mem_ctrls3.perBankWrBursts::0            18621                       # Per bank write bursts
system.mem_ctrls3.perBankWrBursts::1            18485                       # Per bank write bursts
system.mem_ctrls3.perBankWrBursts::2            18602                       # Per bank write bursts
system.mem_ctrls3.perBankWrBursts::3            18610                       # Per bank write bursts
system.mem_ctrls3.perBankWrBursts::4            18570                       # Per bank write bursts
system.mem_ctrls3.perBankWrBursts::5            18601                       # Per bank write bursts
system.mem_ctrls3.perBankWrBursts::6            18715                       # Per bank write bursts
system.mem_ctrls3.perBankWrBursts::7            18789                       # Per bank write bursts
system.mem_ctrls3.perBankWrBursts::8            18540                       # Per bank write bursts
system.mem_ctrls3.perBankWrBursts::9            18496                       # Per bank write bursts
system.mem_ctrls3.perBankWrBursts::10           18415                       # Per bank write bursts
system.mem_ctrls3.perBankWrBursts::11           18512                       # Per bank write bursts
system.mem_ctrls3.perBankWrBursts::12           18454                       # Per bank write bursts
system.mem_ctrls3.perBankWrBursts::13           18408                       # Per bank write bursts
system.mem_ctrls3.perBankWrBursts::14           18596                       # Per bank write bursts
system.mem_ctrls3.perBankWrBursts::15           18576                       # Per bank write bursts
system.mem_ctrls3.numRdRetry                      794                       # Number of times read queue was full causing retry
system.mem_ctrls3.numWrRetry                     5047                       # Number of times write queue was full causing retry
system.mem_ctrls3.totGap                 127508104000                       # Total gap between requests
system.mem_ctrls3.readPktSize::0                    0                       # Read request sizes (log2)
system.mem_ctrls3.readPktSize::1                    0                       # Read request sizes (log2)
system.mem_ctrls3.readPktSize::2                    0                       # Read request sizes (log2)
system.mem_ctrls3.readPktSize::3                    0                       # Read request sizes (log2)
system.mem_ctrls3.readPktSize::4                    0                       # Read request sizes (log2)
system.mem_ctrls3.readPktSize::5                    0                       # Read request sizes (log2)
system.mem_ctrls3.readPktSize::6               642387                       # Read request sizes (log2)
system.mem_ctrls3.writePktSize::0                   0                       # Write request sizes (log2)
system.mem_ctrls3.writePktSize::1                   0                       # Write request sizes (log2)
system.mem_ctrls3.writePktSize::2                   0                       # Write request sizes (log2)
[...]
system.ruby.L2Cache_Controller.MT_MB.L1_PUTX_old::total            1                      
system.ruby.L2Cache_Controller.MT_MB.Exclusive_Unblock |      213560      5.28%      5.28% |      123308      3.05%      8.33% |      121870      3.01%     11.34% |      124029      3.07%     14.40% |      121949      3.01%     17.42% |      121195      3.00%     20.41% |      121198      3.00%     23.41% |      120624      2.98%     26.39% |      121093      2.99%     29.38% |      121853      3.01%     32.40% |      123813      3.06%     35.46% |      122916      3.04%     38.50% |      121867      3.01%     41.51% |      122336      3.02%     44.53% |      120956      2.99%     47.52% |      121088      2.99%     50.51% |      122259      3.02%     53.54% |      122249      3.02%     56.56% |      122821      3.04%     59.59% |      123173      3.04%     62.64% |      123527      3.05%     65.69% |      137973      3.41%     69.10% |      131605      3.25%     72.35% |      122276      3.02%     75.38% |      122672      3.03%     78.41% |      122820      3.04%     81.45% |      122465      3.03%     84.47% |      122309      3.02%     87.50% |      123701      3.06%     90.55% |      122731      3.03%     93.59% |      126252      3.12%     96.71% |      133220      3.29%    100.00%
system.ruby.L2Cache_Controller.MT_MB.Exclusive_Unblock::total      4045708                      
system.ruby.L2Cache_Controller.MT_IIB.L1_GETS |           0      0.00%      0.00% |           0      0.00%      0.00% |           2      8.00%      8.00% |           0      0.00%      8.00% |           5     20.00%     28.00% |           0      0.00%     28.00% |           2      8.00%     36.00% |           0      0.00%     36.00% |           4     16.00%     52.00% |           0      0.00%     52.00% |           0      0.00%     52.00% |           0      0.00%     52.00% |           2      8.00%     60.00% |           0      0.00%     60.00% |           2      8.00%     68.00% |           0      0.00%     68.00% |           1      4.00%     72.00% |           0      0.00%     72.00% |           3     12.00%     84.00% |           0      0.00%     84.00% |           0      0.00%     84.00% |           0      0.00%     84.00% |           1      4.00%     88.00% |           0      0.00%     88.00% |           1      4.00%     92.00% |           0      0.00%     92.00% |           1      4.00%     96.00% |           0      0.00%     96.00% |           0      0.00%     96.00% |           0      0.00%     96.00% |           1      4.00%    100.00% |           0      0.00%    100.00%
system.ruby.L2Cache_Controller.MT_IIB.L1_GETS::total           25                      
system.ruby.L2Cache_Controller.MT_IIB.L1_PUTX |           0      0.00%      0.00% |           0      0.00%      0.00% |           1      1.47%      1.47% |           2      2.94%      4.41% |           0      0.00%      4.41% |           2      2.94%      7.35% |           2      2.94%     10.29% |           0      0.00%     10.29% |           2      2.94%     13.24% |           0      0.00%     13.24% |           2      2.94%     16.18% |           8     11.76%     27.94% |           2      2.94%     30.88% |           5      7.35%     38.24% |           2      2.94%     41.18% |           2      2.94%     44.12% |           4      5.88%     50.00% |           0      0.00%     50.00% |           1      1.47%     51.47% |           1      1.47%     52.94% |           4      5.88%     58.82% |           4      5.88%     64.71% |           4      5.88%     70.59% |           2      2.94%     73.53% |           3      4.41%     77.94% |           2      2.94%     80.88% |           1      1.47%     82.35% |           3      4.41%     86.76% |           2      2.94%     89.71% |           2      2.94%     92.65% |           4      5.88%     98.53% |           1      1.47%    100.00%
system.ruby.L2Cache_Controller.MT_IIB.L1_PUTX::total           68                      
system.ruby.L2Cache_Controller.MT_IIB.WB_Data |           0      0.00%      0.00% |           0      0.00%      0.00% |           0      0.00%      0.00% |           0      0.00%      0.00% |           0      0.00%      0.00% |           0      0.00%      0.00% |           0      0.00%      0.00% |           0      0.00%      0.00% |           0      0.00%      0.00% |           0      0.00%      0.00% |           0      0.00%      0.00% |           0      0.00%      0.00% |           0      0.00%      0.00% |           0      0.00%      0.00% |           0      0.00%      0.00% |           0      0.00%      0.00% |           0      0.00%      0.00% |           0      0.00%      0.00% |           0      0.00%      0.00% |           0      0.00%      0.00% |           0      0.00%      0.00% |           2     40.00%     40.00% |           0      0.00%     40.00% |           0      0.00%     40.00% |           0      0.00%     40.00% |           0      0.00%     40.00% |           1     20.00%     60.00% |           0      0.00%     60.00% |           0      0.00%     60.00% |           0      0.00%     60.00% |           0      0.00%     60.00% |           2     40.00%    100.00%
system.ruby.L2Cache_Controller.MT_IIB.WB_Data::total            5                      
system.ruby.L2Cache_Controller.MT_IIB.WB_Data_clean |         436      2.60%      2.60% |         410      2.44%      5.04% |         428      2.55%      7.59% |         383      2.28%      9.88% |         466      2.78%     12.65% |         441      2.63%     15.28% |         464      2.77%     18.05% |         404      2.41%     20.46% |         447      2.66%     23.12% |         404      2.41%     25.53% |         501      2.99%     28.51% |         478      2.85%     31.36% |         548      3.27%     34.63% |         545      3.25%     37.88% |         598      3.56%     41.44% |         483      2.88%     44.32% |         547      3.26%     47.58% |         520      3.10%     50.68% |         575      3.43%     54.11% |         609      3.63%     57.74% |         667      3.98%     61.71% |         596      3.55%     65.26% |         672      4.01%     69.27% |         540      3.22%     72.49% |         567      3.38%     75.87% |         541      3.22%     79.09% |         525      3.13%     82.22% |         532      3.17%     85.39% |         659      3.93%     89.32% |         597      3.56%     92.88% |         626      3.73%     96.61% |         569      3.39%    100.00%
system.ruby.L2Cache_Controller.MT_IIB.WB_Data_clean::total        16778                      
system.ruby.L2Cache_Controller.MT_IIB.Unblock |           5      1.09%      1.09% |           5      1.09%      2.18% |           5      1.09%      3.27% |           4      0.87%      4.14% |          18      3.92%      8.06% |           9      1.96%     10.02% |          34      7.41%     17.43% |           2      0.44%     17.86% |          30      6.54%     24.40% |          24      5.23%     29.63% |          18      3.92%     33.55% |          15      3.27%     36.82% |           9      1.96%     38.78% |          13      2.83%     41.61% |          15      3.27%     44.88% |          20      4.36%     49.24% |          19      4.14%     53.38% |          11      2.40%     55.77% |           9      1.96%     57.73% |           7      1.53%     59.26% |          17      3.70%     62.96% |          23      5.01%     67.97% |          23      5.01%     72.98% |           9      1.96%     74.95% |          12      2.61%     77.56% |           7      1.53%     79.08% |          11      2.40%     81.48% |           8      1.74%     83.22% |          16      3.49%     86.71% |          25      5.45%     92.16% |          26      5.66%     97.82% |          10      2.18%    100.00%
system.ruby.L2Cache_Controller.MT_IIB.Unblock::total          459                      
system.ruby.L2Cache_Controller.MT_IB.L1_PUTX |           0      0.00%      0.00% |           0      0.00%      0.00% |           0      0.00%      0.00% |           0      0.00%      0.00% |           0      0.00%      0.00% |           0      0.00%      0.00% |           0      0.00%      0.00% |           0      0.00%      0.00% |           1     50.00%     50.00% |           0      0.00%     50.00% |           1     50.00%    100.00% |           0      0.00%    100.00% |           0      0.00%    100.00% |           0      0.00%    100.00% |           0      0.00%    100.00% |           0      0.00%    100.00% |           0      0.00%    100.00% |           0      0.00%    100.00% |           0      0.00%    100.00% |           0      0.00%    100.00% |           0      0.00%    100.00% |           0      0.00%    100.00% |           0      0.00%    100.00% |           0      0.00%    100.00% |           0      0.00%    100.00% |           0      0.00%    100.00% |           0      0.00%    100.00% |           0      0.00%    100.00% |           0      0.00%    100.00% |           0      0.00%    100.00% |           0      0.00%    100.00% |           0      0.00%    100.00%
system.ruby.L2Cache_Controller.MT_IB.L1_PUTX::total            2                      
system.ruby.L2Cache_Controller.MT_IB.WB_Data_clean |           5      1.09%      1.09% |           5      1.09%      2.18% |           5      1.09%      3.27% |           4      0.87%      4.14% |          18      3.92%      8.06% |           9      1.96%     10.02% |          34      7.41%     17.43% |           2      0.44%     17.86% |          30      6.54%     24.40% |          24      5.23%     29.63% |          18      3.92%     33.55% |          15      3.27%     36.82% |           9      1.96%     38.78% |          13      2.83%     41.61% |          15      3.27%     44.88% |          20      4.36%     49.24% |          19      4.14%     53.38% |          11      2.40%     55.77% |           9      1.96%     57.73% |           7      1.53%     59.26% |          17      3.70%     62.96% |          23      5.01%     67.97% |          23      5.01%     72.98% |           9      1.96%     74.95% |          12      2.61%     77.56% |           7      1.53%     79.08% |          11      2.40%     81.48% |           8      1.74%     83.22% |          16      3.49%     86.71% |          25      5.45%     92.16% |          26      5.66%     97.82% |          10      2.18%    100.00%
system.ruby.L2Cache_Controller.MT_IB.WB_Data_clean::total          459                      
system.ruby.L2Cache_Controller.MT_SB.L1_GETS |           0      0.00%      0.00% |           0      0.00%      0.00% |           0      0.00%      0.00% |           0      0.00%      0.00% |           0      0.00%      0.00% |           0      0.00%      0.00% |           0      0.00%      0.00% |           0      0.00%      0.00% |           0      0.00%      0.00% |           0      0.00%      0.00% |           0      0.00%      0.00% |           0      0.00%      0.00% |           0      0.00%      0.00% |           0      0.00%      0.00% |           0      0.00%      0.00% |           0      0.00%      0.00% |           2    100.00%    100.00% |           0      0.00%    100.00% |           0      0.00%    100.00% |           0      0.00%    100.00% |           0      0.00%    100.00% |           0      0.00%    100.00% |           0      0.00%    100.00% |           0      0.00%    100.00% |           0      0.00%    100.00% |           0      0.00%    100.00% |           0      0.00%    100.00% |           0      0.00%    100.00% |           0      0.00%    100.00% |           0      0.00%    100.00% |           0      0.00%    100.00% |           0      0.00%    100.00%
system.ruby.L2Cache_Controller.MT_SB.L1_GETS::total            2                      
system.ruby.L2Cache_Controller.MT_SB.L1_PUTX |           0      0.00%      0.00% |           1     14.29%     14.29% |           1     14.29%     28.57% |           1     14.29%     42.86% |           0      0.00%     42.86% |           0      0.00%     42.86% |           0      0.00%     42.86% |           0      0.00%     42.86% |           0      0.00%     42.86% |           0      0.00%     42.86% |           0      0.00%     42.86% |           0      0.00%     42.86% |           0      0.00%     42.86% |           0      0.00%     42.86% |           0      0.00%     42.86% |           0      0.00%     42.86% |           0      0.00%     42.86% |           0      0.00%     42.86% |           1     14.29%     57.14% |           0      0.00%     57.14% |           0      0.00%     57.14% |           0      0.00%     57.14% |           0      0.00%     57.14% |           0      0.00%     57.14% |           1     14.29%     71.43% |           0      0.00%     71.43% |           0      0.00%     71.43% |           1     14.29%     85.71% |           0      0.00%     85.71% |           1     14.29%    100.00% |           0      0.00%    100.00% |           0      0.00%    100.00%
system.ruby.L2Cache_Controller.MT_SB.L1_PUTX::total            7                      
system.ruby.L2Cache_Controller.MT_SB.Unblock |         436      2.60%      2.60% |         410      2.44%      5.04% |         428      2.55%      7.59% |         383      2.28%      9.87% |         466      2.78%     12.65% |         441      2.63%     15.28% |         464      2.76%     18.04% |         404      2.41%     20.45% |         447      2.66%     23.11% |         404      2.41%     25.52% |         501      2.99%     28.51% |         478      2.85%     31.35% |         548      3.27%     34.62% |         545      3.25%     37.87% |         598      3.56%     41.43% |         483      2.88%     44.31% |         547      3.26%     47.57% |         520      3.10%     50.66% |         575      3.43%     54.09% |         609      3.63%     57.72% |         667      3.97%     61.69% |         598      3.56%     65.26% |         672      4.00%     69.26% |         540      3.22%     72.48% |         567      3.38%     75.86% |         541      3.22%     79.08% |         526      3.13%     82.21% |         532      3.17%     85.38% |         659      3.93%     89.31% |         597      3.56%     92.87% |         626      3.73%     96.60% |         571      3.40%    100.00%
system.ruby.L2Cache_Controller.MT_SB.Unblock::total        16783                      
system.ruby.SimicsNetworkPortInterface_Controller.MessageSend |     1587764     24.92%     24.92% |     3185955     50.00%     74.92% |      199260      3.13%     78.05% |      200138      3.14%     81.19% |      199453      3.13%     84.32% |      200247      3.14%     87.46% |      199721      3.13%     90.59% |      200068      3.14%     93.73% |      199366      3.13%     96.86% |      199938      3.14%    100.00% |           0      0.00%    100.00% |           0      0.00%    100.00% |           0      0.00%    100.00% |           0      0.00%    100.00% |           0      0.00%    100.00% |           0      0.00%    100.00% |           0      0.00%    100.00% |           0      0.00%    100.00% |           0      0.00%    100.00% |           0      0.00%    100.00% |           0      0.00%    100.00% |           0      0.00%    100.00% |           0      0.00%    100.00% |           0      0.00%    100.00% |           0      0.00%    100.00% |           0      0.00%    100.00% |           0      0.00%    100.00% |           0      0.00%    100.00% |           0      0.00%    100.00% |           0      0.00%    100.00% |           0      0.00%    100.00% |           0      0.00%    100.00%
system.ruby.SimicsNetworkPortInterface_Controller.MessageSend::total      6371910                      
system.ruby.SimicsNetworkPortInterface_Controller.MessageRecv |     1587764     24.92%     24.92% |     3185955     50.00%     74.92% |      199260      3.13%     78.05% |      200138      3.14%     81.19% |      199453      3.13%     84.32% |      200247      3.14%     87.46% |      199721      3.13%     90.59% |      200068      3.14%     93.73% |      199366      3.13%     96.86% |      199938      3.14%    100.00% |           0      0.00%    100.00% |           0      0.00%    100.00% |           0      0.00%    100.00% |           0      0.00%    100.00% |           0      0.00%    100.00% |           0      0.00%    100.00% |           0      0.00%    100.00% |           0      0.00%    100.00% |           0      0.00%    100.00% |           0      0.00%    100.00% |           0      0.00%    100.00% |           0      0.00%    100.00% |           0      0.00%    100.00% |           0      0.00%    100.00% |           0      0.00%    100.00% |           0      0.00%    100.00% |           0      0.00%    100.00% |           0      0.00%    100.00% |           0      0.00%    100.00% |           0      0.00%    100.00% |           0      0.00%    100.00% |           0      0.00%    100.00%
system.ruby.SimicsNetworkPortInterface_Controller.MessageRecv::total      6371910                      
system.ruby.SimicsNetworkPortInterface_Controller.A.MessageSend |     1587764     24.92%     24.92% |     3185955     50.00%     74.92% |      199260      3.13%     78.05% |      200138      3.14%     81.19% |      199453      3.13%     84.32% |      200247      3.14%     87.46% |      199721      3.13%     90.59% |      200068      3.14%     93.73% |      199366      3.13%     96.86% |      199938      3.14%    100.00% |           0      0.00%    100.00% |           0      0.00%    100.00% |           0      0.00%    100.00% |           0      0.00%    100.00% |           0      0.00%    100.00% |           0      0.00%    100.00% |           0      0.00%    100.00% |           0      0.00%    100.00% |           0      0.00%    100.00% |           0      0.00%    100.00% |           0      0.00%    100.00% |           0      0.00%    100.00% |           0      0.00%    100.00% |           0      0.00%    100.00% |           0      0.00%    100.00% |           0      0.00%    100.00% |           0      0.00%    100.00% |           0      0.00%    100.00% |           0      0.00%    100.00% |           0      0.00%    100.00% |           0      0.00%    100.00% |           0      0.00%    100.00%
system.ruby.SimicsNetworkPortInterface_Controller.A.MessageSend::total      6371910                      
system.ruby.SimicsNetworkPortInterface_Controller.A.MessageRecv |     1587764     24.92%     24.92% |     3185955     50.00%     74.92% |      199260      3.13%     78.05% |      200138      3.14%     81.19% |      199453      3.13%     84.32% |      200247      3.14%     87.46% |      199721      3.13%     90.59% |      200068      3.14%     93.73% |      199366      3.13%     96.86% |      199938      3.14%    100.00% |           0      0.00%    100.00% |           0      0.00%    100.00% |           0      0.00%    100.00% |           0      0.00%    100.00% |           0      0.00%    100.00% |           0      0.00%    100.00% |           0      0.00%    100.00% |           0      0.00%    100.00% |           0      0.00%    100.00% |           0      0.00%    100.00% |           0      0.00%    100.00% |           0      0.00%    100.00% |           0      0.00%    100.00% |           0      0.00%    100.00% |           0      0.00%    100.00% |           0      0.00%    100.00% |           0      0.00%    100.00% |           0      0.00%    100.00% |           0      0.00%    100.00% |           0      0.00%    100.00% |           0      0.00%    100.00% |           0      0.00%    100.00%
system.ruby.SimicsNetworkPortInterface_Controller.A.MessageRecv::total      6371910                      
system.switch_cpus.kern.inst.arm                    0                       # number of arm instructions executed
system.switch_cpus.kern.inst.quiesce                0                       # number of quiesce instructions executed

---------- End Simulation Statistics   ----------
